@<TRIPOS>MOLECULE
424102 CHEMBL400553_entry_00001_conf_01
53 53 1
SMALL
NO_CHARGES


@<TRIPOS>ATOM
      1 C          30.6838   -6.5591   63.1165 C.3       1 LIG11       0.0000
      2 C          29.7071   -7.6925   63.3797 C.3       1 LIG11       0.0000
      3 C          29.7811   -8.2659   64.7994 C.3       1 LIG11       0.0000
      4 C          28.8590   -9.5067   65.1118 C.3       1 LIG11       0.0000
      5 C          27.4036   -9.0328   64.8662 C.3       1 LIG11       0.0000
      6 O          29.2011  -10.6115   64.2372 O.3       1 LIG11       0.0000
      7 C          28.4102  -11.7958   64.3298 C.3       1 LIG11       0.0000
      8 C          29.0448  -10.0303   66.6297 C.3       1 LIG11       0.0000
      9 N          28.3394   -9.1093   67.5760 N.am      1 LIG11       0.0000
     10 C          28.7875   -7.8615   67.9585 C.2       1 LIG11       0.0000
     11 C          27.8986   -7.1274   68.9381 C.3       1 LIG11       0.0000
     12 O          29.8497   -7.3795   67.5752 O.2       1 LIG11       0.0000
     13 C          30.5434  -10.1190   67.1388 C.3       1 LIG11       0.0000
     14 N          31.5755  -10.7561   66.2707 N.4       1 LIG11       0.0000
     15 CA         31.4752  -12.2182   66.5454 C.3       1 LIG11       0.0000
     16 C          32.7966  -12.9131   66.1709 C.2       1 LIG11       0.0000
     17 O          32.6473  -14.2671   66.1153 O.co2     1 LIG11       0.0000
     18 OXT        33.8549  -12.3601   65.9781 O.co2     1 LIG11       0.0000
     19 C          31.1334  -12.3350   68.0181 C.3       1 LIG11       0.0000
     20 C          30.7013  -10.9293   68.4612 C.3       1 LIG11       0.0000
     21 C          31.6803  -10.3182   69.4446 C.2       1 LIG11       0.0000
     22 C          32.7804  -10.9531   69.8817 C.2       1 LIG11       0.0000
     23 C          33.7756  -10.3460   70.8152 C.3       1 LIG11       0.0000
     24 H          30.5694   -6.2164   62.1093 H         1 LIG11       0.0000
     25 H          31.6843   -6.9092   63.2626 H         1 LIG11       0.0000
     26 H          30.4857   -5.7533   63.7921 H         1 LIG11       0.0000
     27 H          29.9138   -8.4817   62.6874 H         1 LIG11       0.0000
     28 H          28.7242   -7.2861   63.2621 H         1 LIG11       0.0000
     29 H          29.5137   -7.4841   65.4791 H         1 LIG11       0.0000
     30 H          30.7828   -8.6269   64.9046 H         1 LIG11       0.0000
     31 H          27.3052   -8.6915   63.8568 H         1 LIG11       0.0000
     32 H          27.1709   -8.2328   65.5375 H         1 LIG11       0.0000
     33 H          26.7302   -9.8471   65.0347 H         1 LIG11       0.0000
     34 H          28.7725  -12.5220   63.6325 H         1 LIG11       0.0000
     35 H          27.3907  -11.5623   64.1041 H         1 LIG11       0.0000
     36 H          28.4744  -12.1909   65.3221 H         1 LIG11       0.0000
     37 H          28.6417  -11.0213   66.6138 H         1 LIG11       0.0000
     38 H          27.4859   -9.4192   67.9564 H         1 LIG11       0.0000
     39 H          27.0281   -7.7159   69.1401 H         1 LIG11       0.0000
     40 H          27.6046   -6.1881   68.5183 H         1 LIG11       0.0000
     41 H          28.4343   -6.9588   69.8488 H         1 LIG11       0.0000
     42 H          30.7232   -9.0662   67.2037 H         1 LIG11       0.0000
     43 H          32.5052  -10.4110   66.5093 H         1 LIG11       0.0000
     44 H          31.4253  -10.5441   65.2843 H         1 LIG11       0.0000
     45 H          30.7222  -12.7043   65.9610 H         1 LIG11       0.0000
     46 H          31.9894  -12.6543   68.5750 H         1 LIG11       0.0000
     47 H          30.3605  -13.0556   68.1866 H         1 LIG11       0.0000
     48 H          29.7802  -10.9379   69.0057 H         1 LIG11       0.0000
     49 H          31.4920   -9.3663   69.7959 H         1 LIG11       0.0000
     50 H          32.9478  -11.9170   69.5532 H         1 LIG11       0.0000
     51 H          33.4692   -9.3519   71.0658 H         1 LIG11       0.0000
     52 H          34.7352  -10.3152   70.3428 H         1 LIG11       0.0000
     53 H          33.8352  -10.9360   71.7059 H         1 LIG11       0.0000
@<TRIPOS>BOND
     1    1    2 1
     2    2    3 1
     3    3    4 1
     4    4    5 1
     5    4    6 1
     6    6    7 1
     7    8    9 1
     8    9   10 am
     9   10   11 1
    10   10   12 2
    11   13   14 1
    12   14   15 1
    13   16   17 ar
    14   16   18 ar
    15   15   19 1
    16   19   20 1
    17   13   20 1
    18   21   22 2
    19   22   23 1
    20   20   21 1
    21   13    8 1
    22    8    4 1
    23   15   16 1
    24    1   24 1
    25    1   25 1
    26    1   26 1
    27    2   27 1
    28    2   28 1
    29    3   29 1
    30    3   30 1
    31    5   31 1
    32    5   32 1
    33    5   33 1
    34    7   34 1
    35    7   35 1
    36    7   36 1
    37    8   37 1
    38    9   38 1
    39   11   39 1
    40   11   40 1
    41   11   41 1
    42   13   42 1
    43   14   43 1
    44   14   44 1
    45   15   45 1
    46   19   46 1
    47   19   47 1
    48   20   48 1
    49   21   49 1
    50   22   50 1
    51   23   51 1
    52   23   52 1
    53   23   53 1
@<TRIPOS>SUBSTRUCTURE
1 LIG11 1
@<TRIPOS>COMMENT
424102 CHEMBL400553
PLANTSproteinTorsions
3
593 268.0486
841 326.5910
2683 130.6614
PLANTSmolcadARTstart hb
PLANTSmolcadARTstart HB
LINES
29.8497 -7.37954 67.5752 29.245 -5.8475 66.5261 0 255 0 5
33.8549 -12.3601 65.9781 34.0267 -12.8317 63.9594 0 255 0 5
PLANTSmolcadARTstart HBCH
LINES
32.5052 -10.411 66.5093 32.877 -8.317 66.861 255 0 0 5
32.6473 -14.2671 66.1153 31.4287 -14.6973 64.634 255 0 0 5
32.6473 -14.2671 66.1153 33.5706 -16.23 65.5806 255 0 0 5
32.6473 -14.2671 66.1153 33.9645 -14.8609 67.3978 255 0 0 5
33.8549 -12.3601 65.9781 35.9813 -12.8121 66.3855 255 0 0 5
PLANTSmolcadARTstart HB-CHO
LINES
PLANTSmolcadARTend
PLANTSmolcadARTstart HB_WATER
LINES
PLANTSmolcadARTend

PLANTSmolcadARTend

@<TRIPOS>MOLECULE
424102 CHEMBL400553_entry_00001_conf_02
53 53 1
SMALL
NO_CHARGES


@<TRIPOS>ATOM
      1 C          26.5752   -7.9704   64.4646 C.3       1 LIG11       0.0000
      2 C          27.8573   -8.6172   63.9688 C.3       1 LIG11       0.0000
      3 C          28.8966   -7.6223   63.4397 C.3       1 LIG11       0.0000
      4 C          30.2279   -8.2322   62.8540 C.3       1 LIG11       0.0000
      5 C          29.7929   -9.3560   61.8789 C.3       1 LIG11       0.0000
      6 O          30.9810   -7.2049   62.1611 O.3       1 LIG11       0.0000
      7 C          31.4544   -6.1008   62.9316 C.3       1 LIG11       0.0000
      8 C          31.1862   -8.8183   64.0161 C.3       1 LIG11       0.0000
      9 N          32.3060   -9.6023   63.4056 N.am      1 LIG11       0.0000
     10 C          33.4530   -9.0633   62.8599 C.2       1 LIG11       0.0000
     11 C          34.4329  -10.0669   62.2929 C.3       1 LIG11       0.0000
     12 O          33.6647   -7.8558   62.7918 O.2       1 LIG11       0.0000
     13 C          30.4821   -9.7914   65.0505 C.3       1 LIG11       0.0000
     14 N          31.2979  -10.4425   66.1161 N.4       1 LIG11       0.0000
     15 CA         31.8783  -11.6602   65.4809 C.3       1 LIG11       0.0000
     16 C          32.2579  -12.6855   66.5644 C.2       1 LIG11       0.0000
     17 O          32.7539  -13.8297   66.0135 O.co2     1 LIG11       0.0000
     18 OXT        32.1150  -12.5383   67.7564 O.co2     1 LIG11       0.0000
     19 C          30.8178  -12.1663   64.5224 C.3       1 LIG11       0.0000
     20 C          29.8025  -11.0229   64.3784 C.3       1 LIG11       0.0000
     21 C          28.4546  -11.3827   64.9723 C.2       1 LIG11       0.0000
     22 C          28.3113  -12.1408   66.0719 C.2       1 LIG11       0.0000
     23 C          26.9922  -12.4655   66.6923 C.3       1 LIG11       0.0000
     24 H          25.9059   -8.7281   64.8151 H         1 LIG11       0.0000
     25 H          26.1149   -7.4308   63.6634 H         1 LIG11       0.0000
     26 H          26.8017   -7.2968   65.2645 H         1 LIG11       0.0000
     27 H          27.6081   -9.2945   63.1789 H         1 LIG11       0.0000
     28 H          28.3004   -9.1079   64.8100 H         1 LIG11       0.0000
     29 H          29.1651   -6.9739   64.2474 H         1 LIG11       0.0000
     30 H          28.4235   -7.1348   62.6131 H         1 LIG11       0.0000
     31 H          29.1605   -8.9447   61.1200 H         1 LIG11       0.0000
     32 H          29.2583  -10.1094   62.4188 H         1 LIG11       0.0000
     33 H          30.6594   -9.7895   61.4250 H         1 LIG11       0.0000
     34 H          31.9891   -5.4259   62.2966 H         1 LIG11       0.0000
     35 H          32.1056   -6.4569   63.7024 H         1 LIG11       0.0000
     36 H          30.6234   -5.5920   63.3737 H         1 LIG11       0.0000
     37 H          31.5107   -7.9486   64.5484 H         1 LIG11       0.0000
     38 H          32.2166  -10.5826   63.3923 H         1 LIG11       0.0000
     39 H          34.0626  -11.0576   62.4549 H         1 LIG11       0.0000
     40 H          35.3792   -9.9558   62.7799 H         1 LIG11       0.0000
     41 H          34.5500   -9.8971   61.2430 H         1 LIG11       0.0000
     42 H          29.8260   -9.0675   65.4869 H         1 LIG11       0.0000
     43 H          30.7100  -10.6992   66.9090 H         1 LIG11       0.0000
     44 H          32.0219   -9.8193   66.4739 H         1 LIG11       0.0000
     45 H          32.7835  -11.4633   64.9455 H         1 LIG11       0.0000
     46 H          30.3425  -13.0387   64.9197 H         1 LIG11       0.0000
     47 H          31.2395  -12.4394   63.5776 H         1 LIG11       0.0000
     48 H          29.5706  -10.8091   63.3559 H         1 LIG11       0.0000
     49 H          27.6041  -11.0271   64.5082 H         1 LIG11       0.0000
     50 H          29.1627  -12.5212   66.5139 H         1 LIG11       0.0000
     51 H          26.2092  -12.0046   66.1272 H         1 LIG11       0.0000
     52 H          26.9707  -12.0982   67.6972 H         1 LIG11       0.0000
     53 H          26.8518  -13.5263   66.6972 H         1 LIG11       0.0000
@<TRIPOS>BOND
     1    1    2 1
     2    2    3 1
     3    3    4 1
     4    4    5 1
     5    4    6 1
     6    6    7 1
     7    8    9 1
     8    9   10 am
     9   10   11 1
    10   10   12 2
    11   13   14 1
    12   14   15 1
    13   16   17 ar
    14   16   18 ar
    15   15   19 1
    16   19   20 1
    17   13   20 1
    18   21   22 2
    19   22   23 1
    20   20   21 1
    21   13    8 1
    22    8    4 1
    23   15   16 1
    24    1   24 1
    25    1   25 1
    26    1   26 1
    27    2   27 1
    28    2   28 1
    29    3   29 1
    30    3   30 1
    31    5   31 1
    32    5   32 1
    33    5   33 1
    34    7   34 1
    35    7   35 1
    36    7   36 1
    37    8   37 1
    38    9   38 1
    39   11   39 1
    40   11   40 1
    41   11   41 1
    42   13   42 1
    43   14   43 1
    44   14   44 1
    45   15   45 1
    46   19   46 1
    47   19   47 1
    48   20   48 1
    49   21   49 1
    50   22   50 1
    51   23   51 1
    52   23   52 1
    53   23   53 1
@<TRIPOS>SUBSTRUCTURE
1 LIG11 1
@<TRIPOS>COMMENT
424102 CHEMBL400553
PLANTSproteinTorsions
3
593 213.0493
841 131.5452
2683 71.3767
PLANTSmolcadARTstart hb
PLANTSmolcadARTstart HB
LINES
32.7539 -13.8297 66.0135 33.691 -13.6587 64.1255 0 255 0 5
PLANTSmolcadARTstart HBCH
LINES
32.0219 -9.81933 66.4739 32.877 -8.317 66.861 255 0 0 5
32.7539 -13.8297 66.0135 31.4287 -14.6973 64.634 255 0 0 5
32.7539 -13.8297 66.0135 33.9645 -14.8609 67.3978 255 0 0 5
PLANTSmolcadARTstart HB-CHO
LINES
PLANTSmolcadARTend
PLANTSmolcadARTstart HB_WATER
LINES
PLANTSmolcadARTend

PLANTSmolcadARTend

@<TRIPOS>MOLECULE
424102 CHEMBL400553_entry_00001_conf_03
53 53 1
SMALL
NO_CHARGES


@<TRIPOS>ATOM
      1 C          30.1878  -10.0654   62.0650 C.3       1 LIG11       0.0000
      2 C          29.7515  -10.4787   63.4603 C.3       1 LIG11       0.0000
      3 C          30.6079  -11.5880   64.0814 C.3       1 LIG11       0.0000
      4 C          30.2450  -12.0240   65.5530 C.3       1 LIG11       0.0000
      5 C          28.7610  -12.4705   65.5150 C.3       1 LIG11       0.0000
      6 O          31.1053  -13.1126   65.9741 O.3       1 LIG11       0.0000
      7 C          32.4541  -12.7940   66.3144 C.3       1 LIG11       0.0000
      8 C          30.4560  -10.8189   66.6093 C.3       1 LIG11       0.0000
      9 N          30.0730  -11.2733   67.9834 N.am      1 LIG11       0.0000
     10 C          30.8856  -11.2197   69.0973 C.2       1 LIG11       0.0000
     11 C          30.2706  -11.7524   70.3728 C.3       1 LIG11       0.0000
     12 O          32.0430  -10.8108   69.0689 O.2       1 LIG11       0.0000
     13 C          29.6058   -9.5113   66.3265 C.3       1 LIG11       0.0000
     14 N          29.8622   -8.2823   67.1320 N.4       1 LIG11       0.0000
     15 CA         29.0540   -8.4479   68.3740 C.3       1 LIG11       0.0000
     16 C          28.7814   -7.0723   69.0085 C.2       1 LIG11       0.0000
     17 O          28.0200   -6.2905   68.1913 O.co2     1 LIG11       0.0000
     18 OXT        29.2025   -6.6918   70.0767 O.co2     1 LIG11       0.0000
     19 C          27.7918   -9.1715   67.9470 C.3       1 LIG11       0.0000
     20 C          28.0741   -9.7109   66.5369 C.3       1 LIG11       0.0000
     21 C          27.2149   -9.0331   65.4874 C.2       1 LIG11       0.0000
     22 C          27.7199   -8.3023   64.4798 C.2       1 LIG11       0.0000
     23 C          26.8879   -7.6668   63.4148 C.3       1 LIG11       0.0000
     24 H          29.5431   -9.2914   61.7043 H         1 LIG11       0.0000
     25 H          30.1332  -10.9094   61.4096 H         1 LIG11       0.0000
     26 H          31.1945   -9.7043   62.0985 H         1 LIG11       0.0000
     27 H          28.7404  -10.8248   63.4073 H         1 LIG11       0.0000
     28 H          29.8616   -9.6174   64.0856 H         1 LIG11       0.0000
     29 H          31.6232  -11.2503   64.0845 H         1 LIG11       0.0000
     30 H          30.4263  -12.4536   63.4792 H         1 LIG11       0.0000
     31 H          28.6463  -13.2674   64.8102 H         1 LIG11       0.0000
     32 H          28.1474  -11.6443   65.2222 H         1 LIG11       0.0000
     33 H          28.4652  -12.8079   66.4864 H         1 LIG11       0.0000
     34 H          32.9690  -13.6859   66.6044 H         1 LIG11       0.0000
     35 H          32.4620  -12.0975   67.1267 H         1 LIG11       0.0000
     36 H          32.9426  -12.3595   65.4673 H         1 LIG11       0.0000
     37 H          31.4916  -10.5673   66.5128 H         1 LIG11       0.0000
     38 H          29.1673  -11.6404   68.1019 H         1 LIG11       0.0000
     39 H          29.2620  -12.0550   70.1831 H         1 LIG11       0.0000
     40 H          30.2787  -10.9863   71.1197 H         1 LIG11       0.0000
     41 H          30.8362  -12.5926   70.7176 H         1 LIG11       0.0000
     42 H          29.9299   -9.3587   65.3183 H         1 LIG11       0.0000
     43 H          29.5644   -7.4516   66.6204 H         1 LIG11       0.0000
     44 H          30.8542   -8.1633   67.3376 H         1 LIG11       0.0000
     45 H          29.5568   -9.0152   69.1292 H         1 LIG11       0.0000
     46 H          26.9630   -8.4950   67.9279 H         1 LIG11       0.0000
     47 H          27.5407   -9.9590   68.6265 H         1 LIG11       0.0000
     48 H          27.8152  -10.7442   66.4356 H         1 LIG11       0.0000
     49 H          26.1902   -9.1386   65.5504 H         1 LIG11       0.0000
     50 H          28.7429   -8.1724   64.4392 H         1 LIG11       0.0000
     51 H          25.8556   -7.8880   63.5892 H         1 LIG11       0.0000
     52 H          27.1783   -8.0503   62.4590 H         1 LIG11       0.0000
     53 H          27.0337   -6.6069   63.4332 H         1 LIG11       0.0000
@<TRIPOS>BOND
     1    1    2 1
     2    2    3 1
     3    3    4 1
     4    4    5 1
     5    4    6 1
     6    6    7 1
     7    8    9 1
     8    9   10 am
     9   10   11 1
    10   10   12 2
    11   13   14 1
    12   14   15 1
    13   16   17 ar
    14   16   18 ar
    15   15   19 1
    16   19   20 1
    17   13   20 1
    18   21   22 2
    19   22   23 1
    20   20   21 1
    21   13    8 1
    22    8    4 1
    23   15   16 1
    24    1   24 1
    25    1   25 1
    26    1   26 1
    27    2   27 1
    28    2   28 1
    29    3   29 1
    30    3   30 1
    31    5   31 1
    32    5   32 1
    33    5   33 1
    34    7   34 1
    35    7   35 1
    36    7   36 1
    37    8   37 1
    38    9   38 1
    39   11   39 1
    40   11   40 1
    41   11   41 1
    42   13   42 1
    43   14   43 1
    44   14   44 1
    45   15   45 1
    46   19   46 1
    47   19   47 1
    48   20   48 1
    49   21   49 1
    50   22   50 1
    51   23   51 1
    52   23   52 1
    53   23   53 1
@<TRIPOS>SUBSTRUCTURE
1 LIG11 1
@<TRIPOS>COMMENT
424102 CHEMBL400553
PLANTSproteinTorsions
3
593 227.1565
841 336.9900
2683 168.4898
PLANTSmolcadARTstart hb
PLANTSmolcadARTstart HB
LINES
31.1053 -13.1126 65.9741 31.4287 -14.6973 64.634 0 255 0 5
PLANTSmolcadARTstart HBCH
LINES
30.8542 -8.1633 67.3376 32.877 -8.317 66.861 255 0 0 5
28.02 -6.29054 68.1913 29.245 -5.8475 66.5261 255 0 0 5
28.02 -6.29054 68.1913 27.8673 -4.4679 67.7309 255 0 0 5
29.2025 -6.69181 70.0767 30.767 -5.65011 69.4844 255 0 0 5
PLANTSmolcadARTstart HB-CHO
LINES
PLANTSmolcadARTend
PLANTSmolcadARTstart HB_WATER
LINES
PLANTSmolcadARTend

PLANTSmolcadARTend

@<TRIPOS>MOLECULE
424102 CHEMBL400553_entry_00001_conf_04
53 53 1
SMALL
NO_CHARGES


@<TRIPOS>ATOM
      1 C          34.2143   -6.6872   63.1430 C.3       1 LIG11       0.0000
      2 C          34.1550   -8.1301   62.6714 C.3       1 LIG11       0.0000
      3 C          33.0444   -8.9583   63.3276 C.3       1 LIG11       0.0000
      4 C          31.5639   -8.4629   63.1034 C.3       1 LIG11       0.0000
      5 C          31.3870   -7.2156   64.0067 C.3       1 LIG11       0.0000
      6 O          31.3592   -8.1277   61.7076 O.3       1 LIG11       0.0000
      7 C          31.5535   -9.1632   60.7450 C.3       1 LIG11       0.0000
      8 C          30.4820   -9.6033   63.4795 C.3       1 LIG11       0.0000
      9 N          29.1001   -9.1144   63.1751 N.am      1 LIG11       0.0000
     10 C          28.3858   -8.2140   63.9385 C.2       1 LIG11       0.0000
     11 C          27.0007   -7.8866   63.4254 C.3       1 LIG11       0.0000
     12 O          28.8091   -7.7321   64.9855 O.2       1 LIG11       0.0000
     13 C          30.4651  -10.0481   65.0009 C.3       1 LIG11       0.0000
     14 N          31.7538  -10.3368   65.6941 N.4       1 LIG11       0.0000
     15 CA         32.0725  -11.7549   65.3615 C.3       1 LIG11       0.0000
     16 C          33.0274  -12.3386   66.4183 C.2       1 LIG11       0.0000
     17 O          32.7802  -11.8168   67.6533 O.co2     1 LIG11       0.0000
     18 OXT        33.9145  -13.1330   66.2060 O.co2     1 LIG11       0.0000
     19 C          30.7370  -12.4706   65.3003 C.3       1 LIG11       0.0000
     20 C          29.6710  -11.3659   65.2521 C.3       1 LIG11       0.0000
     21 C          28.8206  -11.3426   66.5072 C.2       1 LIG11       0.0000
     22 C          27.4977  -11.5756   66.5067 C.2       1 LIG11       0.0000
     23 C          26.6569  -11.5995   67.7406 C.3       1 LIG11       0.0000
     24 H          35.0113   -6.1802   62.6404 H         1 LIG11       0.0000
     25 H          34.3864   -6.6638   64.1987 H         1 LIG11       0.0000
     26 H          33.2870   -6.2013   62.9219 H         1 LIG11       0.0000
     27 H          35.0940   -8.5940   62.8903 H         1 LIG11       0.0000
     28 H          33.9414   -8.1034   61.6232 H         1 LIG11       0.0000
     29 H          33.2269   -8.9676   64.3818 H         1 LIG11       0.0000
     30 H          33.0939   -9.9177   62.8566 H         1 LIG11       0.0000
     31 H          32.1127   -6.4760   63.7397 H         1 LIG11       0.0000
     32 H          31.5225   -7.4947   65.0308 H         1 LIG11       0.0000
     33 H          30.4038   -6.8152   63.8733 H         1 LIG11       0.0000
     34 H          31.3698   -8.7774   59.7641 H         1 LIG11       0.0000
     35 H          30.8763   -9.9673   60.9445 H         1 LIG11       0.0000
     36 H          32.5599   -9.5214   60.8047 H         1 LIG11       0.0000
     37 H          30.7787  -10.4467   62.8916 H         1 LIG11       0.0000
     38 H          28.6656   -9.4640   62.3638 H         1 LIG11       0.0000
     39 H          26.8293   -8.4057   62.5056 H         1 LIG11       0.0000
     40 H          26.9215   -6.8324   63.2601 H         1 LIG11       0.0000
     41 H          26.2719   -8.1901   64.1475 H         1 LIG11       0.0000
     42 H          30.0334   -9.1520   65.3954 H         1 LIG11       0.0000
     43 H          31.6506  -10.2211   66.7022 H         1 LIG11       0.0000
     44 H          32.4949   -9.7016   65.3977 H         1 LIG11       0.0000
     45 H          32.5821  -11.8624   64.4269 H         1 LIG11       0.0000
     46 H          30.6016  -13.0812   66.1685 H         1 LIG11       0.0000
     47 H          30.6747  -13.1150   64.4484 H         1 LIG11       0.0000
     48 H          28.9543  -11.5238   64.4734 H         1 LIG11       0.0000
     49 H          29.2815  -11.1374   67.4075 H         1 LIG11       0.0000
     50 H          27.0353  -11.7482   65.6004 H         1 LIG11       0.0000
     51 H          27.2714  -11.4054   68.5948 H         1 LIG11       0.0000
     52 H          26.1991  -12.5615   67.8417 H         1 LIG11       0.0000
     53 H          25.8976  -10.8489   67.6695 H         1 LIG11       0.0000
@<TRIPOS>BOND
     1    1    2 1
     2    2    3 1
     3    3    4 1
     4    4    5 1
     5    4    6 1
     6    6    7 1
     7    8    9 1
     8    9   10 am
     9   10   11 1
    10   10   12 2
    11   13   14 1
    12   14   15 1
    13   16   17 ar
    14   16   18 ar
    15   15   19 1
    16   19   20 1
    17   13   20 1
    18   21   22 2
    19   22   23 1
    20   20   21 1
    21   13    8 1
    22    8    4 1
    23   15   16 1
    24    1   24 1
    25    1   25 1
    26    1   26 1
    27    2   27 1
    28    2   28 1
    29    3   29 1
    30    3   30 1
    31    5   31 1
    32    5   32 1
    33    5   33 1
    34    7   34 1
    35    7   35 1
    36    7   36 1
    37    8   37 1
    38    9   38 1
    39   11   39 1
    40   11   40 1
    41   11   41 1
    42   13   42 1
    43   14   43 1
    44   14   44 1
    45   15   45 1
    46   19   46 1
    47   19   47 1
    48   20   48 1
    49   21   49 1
    50   22   50 1
    51   23   51 1
    52   23   52 1
    53   23   53 1
@<TRIPOS>SUBSTRUCTURE
1 LIG11 1
@<TRIPOS>COMMENT
424102 CHEMBL400553
PLANTSproteinTorsions
3
593 98.0360
841 219.7209
2683 96.7079
PLANTSmolcadARTstart hb
PLANTSmolcadARTstart HB
LINES
33.9145 -13.133 66.206 33.8732 -13.302 64.1654 0 255 0 5
PLANTSmolcadARTstart HBCH
LINES
32.4949 -9.70164 65.3977 32.877 -8.317 66.861 255 0 0 5
33.9145 -13.133 66.206 35.9813 -12.8121 66.3855 255 0 0 5
33.9145 -13.133 66.206 33.9645 -14.8609 67.3978 255 0 0 5
PLANTSmolcadARTstart HB-CHO
LINES
PLANTSmolcadARTend
PLANTSmolcadARTstart HB_WATER
LINES
PLANTSmolcadARTend

PLANTSmolcadARTend

@<TRIPOS>MOLECULE
424102 CHEMBL400553_entry_00001_conf_05
53 53 1
SMALL
NO_CHARGES


@<TRIPOS>ATOM
      1 C          30.8730   -5.3500   61.9388 C.3       1 LIG11       0.0000
      2 C          30.6169   -6.8473   61.9588 C.3       1 LIG11       0.0000
      3 C          31.6935   -7.6571   62.6902 C.3       1 LIG11       0.0000
      4 C          31.6467   -9.2233   62.5109 C.3       1 LIG11       0.0000
      5 C          31.3478   -9.4752   61.0109 C.3       1 LIG11       0.0000
      6 O          32.9191   -9.8044   62.8926 O.3       1 LIG11       0.0000
      7 C          34.0865   -9.3389   62.2163 C.3       1 LIG11       0.0000
      8 C          30.5168   -9.9046   63.4446 C.3       1 LIG11       0.0000
      9 N          29.2434   -9.1222   63.3560 N.am      1 LIG11       0.0000
     10 C          27.9790   -9.6272   63.5802 C.2       1 LIG11       0.0000
     11 C          26.8482   -8.6357   63.4165 C.3       1 LIG11       0.0000
     12 O          27.7615  -10.8042   63.8536 O.2       1 LIG11       0.0000
     13 C          30.8722   -9.9913   64.9870 C.3       1 LIG11       0.0000
     14 N          32.0867  -10.7425   65.4178 N.4       1 LIG11       0.0000
     15 CA         31.6569  -12.1670   65.5141 C.3       1 LIG11       0.0000
     16 C          32.6029  -12.9370   66.4530 C.2       1 LIG11       0.0000
     17 O          32.8603  -14.1896   65.9805 O.co2     1 LIG11       0.0000
     18 OXT        33.0496  -12.5242   67.4985 O.co2     1 LIG11       0.0000
     19 C          30.2234  -12.1292   66.0072 C.3       1 LIG11       0.0000
     20 C          29.7611  -10.6740   65.8412 C.3       1 LIG11       0.0000
     21 C          29.5113  -10.0019   67.1772 C.2       1 LIG11       0.0000
     22 C          29.7328  -10.6024   68.3582 C.2       1 LIG11       0.0000
     23 C          29.5334   -9.9368   69.6801 C.3       1 LIG11       0.0000
     24 H          30.0808   -4.8596   61.4128 H         1 LIG11       0.0000
     25 H          31.8028   -5.1537   61.4470 H         1 LIG11       0.0000
     26 H          30.9159   -4.9820   62.9427 H         1 LIG11       0.0000
     27 H          30.5657   -7.1928   60.9474 H         1 LIG11       0.0000
     28 H          29.7022   -6.9966   62.4936 H         1 LIG11       0.0000
     29 H          31.6024   -7.4477   63.7355 H         1 LIG11       0.0000
     30 H          32.6207   -7.3518   62.2520 H         1 LIG11       0.0000
     31 H          32.1076   -9.0157   60.4137 H         1 LIG11       0.0000
     32 H          30.3957   -9.0553   60.7615 H         1 LIG11       0.0000
     33 H          31.3336  -10.5282   60.8219 H         1 LIG11       0.0000
     34 H          34.9463   -9.8500   62.5961 H         1 LIG11       0.0000
     35 H          34.1967   -8.2869   62.3779 H         1 LIG11       0.0000
     36 H          33.9916   -9.5308   61.1680 H         1 LIG11       0.0000
     37 H          30.4352  -10.9025   63.0674 H         1 LIG11       0.0000
     38 H          29.3140   -8.1695   63.1184 H         1 LIG11       0.0000
     39 H          27.2499   -7.6722   63.1814 H         1 LIG11       0.0000
     40 H          26.2906   -8.5769   64.3279 H         1 LIG11       0.0000
     41 H          26.2043   -8.9566   62.6246 H         1 LIG11       0.0000
     42 H          31.0173   -8.9435   65.1480 H         1 LIG11       0.0000
     43 H          32.4120  -10.4058   66.3240 H         1 LIG11       0.0000
     44 H          32.8594  -10.6226   64.7628 H         1 LIG11       0.0000
     45 H          31.7025  -12.6832   64.5780 H         1 LIG11       0.0000
     46 H          30.1756  -12.4201   67.0358 H         1 LIG11       0.0000
     47 H          29.6008  -12.8048   65.4588 H         1 LIG11       0.0000
     48 H          28.8139  -10.6001   65.3489 H         1 LIG11       0.0000
     49 H          29.1531   -9.0340   67.1794 H         1 LIG11       0.0000
     50 H          30.0601  -11.5810   68.3516 H         1 LIG11       0.0000
     51 H          29.1951   -8.9334   69.5268 H         1 LIG11       0.0000
     52 H          30.4596   -9.9230   70.2159 H         1 LIG11       0.0000
     53 H          28.8026  -10.4772   70.2449 H         1 LIG11       0.0000
@<TRIPOS>BOND
     1    1    2 1
     2    2    3 1
     3    3    4 1
     4    4    5 1
     5    4    6 1
     6    6    7 1
     7    8    9 1
     8    9   10 am
     9   10   11 1
    10   10   12 2
    11   13   14 1
    12   14   15 1
    13   16   17 ar
    14   16   18 ar
    15   15   19 1
    16   19   20 1
    17   13   20 1
    18   21   22 2
    19   22   23 1
    20   20   21 1
    21   13    8 1
    22    8    4 1
    23   15   16 1
    24    1   24 1
    25    1   25 1
    26    1   26 1
    27    2   27 1
    28    2   28 1
    29    3   29 1
    30    3   30 1
    31    5   31 1
    32    5   32 1
    33    5   33 1
    34    7   34 1
    35    7   35 1
    36    7   36 1
    37    8   37 1
    38    9   38 1
    39   11   39 1
    40   11   40 1
    41   11   41 1
    42   13   42 1
    43   14   43 1
    44   14   44 1
    45   15   45 1
    46   19   46 1
    47   19   47 1
    48   20   48 1
    49   21   49 1
    50   22   50 1
    51   23   51 1
    52   23   52 1
    53   23   53 1
@<TRIPOS>SUBSTRUCTURE
1 LIG11 1
@<TRIPOS>COMMENT
424102 CHEMBL400553
PLANTSproteinTorsions
3
593 205.1307
841 223.7921
2683 66.0112
PLANTSmolcadARTstart hb
PLANTSmolcadARTstart HB
LINES
32.8603 -14.1896 65.9805 33.6485 -13.7271 64.0956 0 255 0 5
PLANTSmolcadARTstart HBCH
LINES
32.412 -10.4058 66.324 32.877 -8.317 66.861 255 0 0 5
32.8603 -14.1896 65.9805 31.4287 -14.6973 64.634 255 0 0 5
32.8603 -14.1896 65.9805 33.5706 -16.23 65.5806 255 0 0 5
32.8603 -14.1896 65.9805 33.9645 -14.8609 67.3978 255 0 0 5
PLANTSmolcadARTstart HB-CHO
LINES
PLANTSmolcadARTend
PLANTSmolcadARTstart HB_WATER
LINES
PLANTSmolcadARTend

PLANTSmolcadARTend

@<TRIPOS>MOLECULE
424102 CHEMBL400553_entry_00001_conf_06
53 53 1
SMALL
NO_CHARGES


@<TRIPOS>ATOM
      1 C          30.6400   -5.8753   61.8434 C.3       1 LIG11       0.0000
      2 C          30.2246   -6.6032   63.1105 C.3       1 LIG11       0.0000
      3 C          29.3931   -7.8669   62.8629 C.3       1 LIG11       0.0000
      4 C          29.1242   -8.7943   64.1100 C.3       1 LIG11       0.0000
      5 C          28.1337   -8.0191   65.0160 C.3       1 LIG11       0.0000
      6 O          28.5549  -10.0554   63.6764 O.3       1 LIG11       0.0000
      7 C          27.2394  -10.0303   63.1237 C.3       1 LIG11       0.0000
      8 C          30.4853   -9.1402   64.9101 C.3       1 LIG11       0.0000
      9 N          31.5252   -9.6375   63.9548 N.am      1 LIG11       0.0000
     10 C          32.5478   -8.8794   63.4223 C.2       1 LIG11       0.0000
     11 C          33.4656   -9.6108   62.4676 C.3       1 LIG11       0.0000
     12 O          32.6960   -7.6842   63.6607 O.2       1 LIG11       0.0000
     13 C          30.3503  -10.2534   66.0305 C.3       1 LIG11       0.0000
     14 N          31.5416  -10.6137   66.8526 N.4       1 LIG11       0.0000
     15 CA         32.2876  -11.6223   66.0468 C.3       1 LIG11       0.0000
     16 C          33.1860  -12.4674   66.9676 C.2       1 LIG11       0.0000
     17 O          33.9561  -13.3344   66.2507 O.co2     1 LIG11       0.0000
     18 OXT        33.2047  -12.4164   68.1760 O.co2     1 LIG11       0.0000
     19 C          31.2286  -12.4375   65.3303 C.3       1 LIG11       0.0000
     20 C          29.9211  -11.6445   65.4728 C.3       1 LIG11       0.0000
     21 C          28.9091  -12.3693   66.3386 C.2       1 LIG11       0.0000
     22 C          29.1916  -13.4903   67.0226 C.2       1 LIG11       0.0000
     23 C          28.2176  -14.1889   67.9136 C.3       1 LIG11       0.0000
     24 H          31.2137   -5.0096   62.1010 H         1 LIG11       0.0000
     25 H          29.7673   -5.5765   61.3013 H         1 LIG11       0.0000
     26 H          31.2318   -6.5273   61.2353 H         1 LIG11       0.0000
     27 H          29.6452   -5.9316   63.7090 H         1 LIG11       0.0000
     28 H          31.1255   -6.9168   63.5954 H         1 LIG11       0.0000
     29 H          29.9045   -8.4525   62.1278 H         1 LIG11       0.0000
     30 H          28.4288   -7.5141   62.5621 H         1 LIG11       0.0000
     31 H          27.2421   -7.8018   64.4657 H         1 LIG11       0.0000
     32 H          28.5859   -7.1044   65.3380 H         1 LIG11       0.0000
     33 H          27.8893   -8.6161   65.8697 H         1 LIG11       0.0000
     34 H          26.9490  -11.0228   62.8490 H         1 LIG11       0.0000
     35 H          27.2286   -9.4029   62.2570 H         1 LIG11       0.0000
     36 H          26.5545   -9.6464   63.8505 H         1 LIG11       0.0000
     37 H          30.7465   -8.2194   65.3885 H         1 LIG11       0.0000
     38 H          31.4753  -10.5828   63.6843 H         1 LIG11       0.0000
     39 H          33.1669  -10.6361   62.4007 H         1 LIG11       0.0000
     40 H          34.4719   -9.5553   62.8272 H         1 LIG11       0.0000
     41 H          33.4073   -9.1585   61.4997 H         1 LIG11       0.0000
     42 H          29.6313   -9.7435   66.6370 H         1 LIG11       0.0000
     43 H          31.2518  -11.0133   67.7451 H         1 LIG11       0.0000
     44 H          32.1161   -9.7983   67.0662 H         1 LIG11       0.0000
     45 H          32.9488  -11.1813   65.3305 H         1 LIG11       0.0000
     46 H          31.1307  -13.4017   65.7838 H         1 LIG11       0.0000
     47 H          31.4825  -12.5963   64.3030 H         1 LIG11       0.0000
     48 H          29.4088  -11.5306   64.5403 H         1 LIG11       0.0000
     49 H          27.9550  -11.9818   66.4058 H         1 LIG11       0.0000
     50 H          30.1371  -13.8925   66.9269 H         1 LIG11       0.0000
     51 H          27.2884  -13.6584   67.9114 H         1 LIG11       0.0000
     52 H          28.6066  -14.2230   68.9098 H         1 LIG11       0.0000
     53 H          28.0602  -15.1857   67.5578 H         1 LIG11       0.0000
@<TRIPOS>BOND
     1    1    2 1
     2    2    3 1
     3    3    4 1
     4    4    5 1
     5    4    6 1
     6    6    7 1
     7    8    9 1
     8    9   10 am
     9   10   11 1
    10   10   12 2
    11   13   14 1
    12   14   15 1
    13   16   17 ar
    14   16   18 ar
    15   15   19 1
    16   19   20 1
    17   13   20 1
    18   21   22 2
    19   22   23 1
    20   20   21 1
    21   13    8 1
    22    8    4 1
    23   15   16 1
    24    1   24 1
    25    1   25 1
    26    1   26 1
    27    2   27 1
    28    2   28 1
    29    3   29 1
    30    3   30 1
    31    5   31 1
    32    5   32 1
    33    5   33 1
    34    7   34 1
    35    7   35 1
    36    7   36 1
    37    8   37 1
    38    9   38 1
    39   11   39 1
    40   11   40 1
    41   11   41 1
    42   13   42 1
    43   14   43 1
    44   14   44 1
    45   15   45 1
    46   19   46 1
    47   19   47 1
    48   20   48 1
    49   21   49 1
    50   22   50 1
    51   23   51 1
    52   23   52 1
    53   23   53 1
@<TRIPOS>SUBSTRUCTURE
1 LIG11 1
@<TRIPOS>COMMENT
424102 CHEMBL400553
PLANTSproteinTorsions
3
593 115.6845
841 237.9648
2683 89.3357
PLANTSmolcadARTstart hb
PLANTSmolcadARTstart HB
LINES
33.9561 -13.3344 66.2507 33.8244 -13.4093 64.1714 0 255 0 5
PLANTSmolcadARTstart HBCH
LINES
32.1161 -9.79826 67.0662 32.877 -8.317 66.861 255 0 0 5
33.9561 -13.3344 66.2507 35.9813 -12.8121 66.3855 255 0 0 5
33.9561 -13.3344 66.2507 33.9645 -14.8609 67.3978 255 0 0 5
PLANTSmolcadARTstart HB-CHO
LINES
PLANTSmolcadARTend
PLANTSmolcadARTstart HB_WATER
LINES
PLANTSmolcadARTend

PLANTSmolcadARTend

@<TRIPOS>MOLECULE
424102 CHEMBL400553_entry_00001_conf_07
53 53 1
SMALL
NO_CHARGES


@<TRIPOS>ATOM
      1 C          32.5161   -6.3118   63.5133 C.3       1 LIG11       0.0000
      2 C          31.0846   -6.7859   63.3290 C.3       1 LIG11       0.0000
      3 C          30.8663   -7.6483   62.0807 C.3       1 LIG11       0.0000
      4 C          31.2982   -9.1619   62.1803 C.3       1 LIG11       0.0000
      5 C          31.1090   -9.7568   60.7613 C.3       1 LIG11       0.0000
      6 O          32.6819   -9.2559   62.6036 O.3       1 LIG11       0.0000
      7 C          33.6548   -8.5411   61.8425 C.3       1 LIG11       0.0000
      8 C          30.4157   -9.9716   63.2656 C.3       1 LIG11       0.0000
      9 N          28.9973   -9.4941   63.2269 N.am      1 LIG11       0.0000
     10 C          27.8967  -10.2289   63.6177 C.2       1 LIG11       0.0000
     11 C          26.5649   -9.5264   63.4713 C.3       1 LIG11       0.0000
     12 O          27.9669  -11.3869   64.0197 O.2       1 LIG11       0.0000
     13 C          30.8878   -9.8232   64.7716 C.3       1 LIG11       0.0000
     14 N          32.2325  -10.3303   65.1711 N.4       1 LIG11       0.0000
     15 CA         32.0396  -11.7816   65.4539 C.3       1 LIG11       0.0000
     16 C          33.1584  -12.2873   66.3822 C.2       1 LIG11       0.0000
     17 O          33.2099  -11.5648   67.5372 O.co2     1 LIG11       0.0000
     18 OXT        33.9303  -13.1846   66.1333 O.co2     1 LIG11       0.0000
     19 C          30.6563  -11.8990   66.0637 C.3       1 LIG11       0.0000
     20 C          29.9605  -10.5580   65.7866 C.3       1 LIG11       0.0000
     21 C          29.7029   -9.7783   67.0613 C.2       1 LIG11       0.0000
     22 C          28.4874   -9.3349   67.4222 C.2       1 LIG11       0.0000
     23 C          28.2126   -8.6049   68.6958 C.3       1 LIG11       0.0000
     24 H          32.5841   -5.7196   64.4019 H         1 LIG11       0.0000
     25 H          32.8083   -5.7230   62.6691 H         1 LIG11       0.0000
     26 H          33.1641   -7.1590   63.5989 H         1 LIG11       0.0000
     27 H          30.4524   -5.9255   63.2577 H         1 LIG11       0.0000
     28 H          30.8522   -7.4009   64.1732 H         1 LIG11       0.0000
     29 H          31.4204   -7.2052   61.2797 H         1 LIG11       0.0000
     30 H          29.8066   -7.6676   61.9344 H         1 LIG11       0.0000
     31 H          31.7017   -9.2055   60.0615 H         1 LIG11       0.0000
     32 H          30.0778   -9.6938   60.4828 H         1 LIG11       0.0000
     33 H          31.4168  -10.7815   60.7603 H         1 LIG11       0.0000
     34 H          34.6249   -8.6996   62.2650 H         1 LIG11       0.0000
     35 H          33.4244   -7.4963   61.8604 H         1 LIG11       0.0000
     36 H          33.6444   -8.8913   60.8315 H         1 LIG11       0.0000
     37 H          30.5320  -10.9968   62.9821 H         1 LIG11       0.0000
     38 H          28.8368   -8.5811   62.8955 H         1 LIG11       0.0000
     39 H          26.7240   -8.5321   63.1096 H         1 LIG11       0.0000
     40 H          26.0765   -9.4861   64.4225 H         1 LIG11       0.0000
     41 H          25.9522  -10.0642   62.7784 H         1 LIG11       0.0000
     42 H          30.8775   -8.7539   64.8082 H         1 LIG11       0.0000
     43 H          32.5637   -9.8451   66.0049 H         1 LIG11       0.0000
     44 H          32.9288  -10.1749   64.4421 H         1 LIG11       0.0000
     45 H          32.0998  -12.3915   64.5769 H         1 LIG11       0.0000
     46 H          30.7271  -12.0711   67.1174 H         1 LIG11       0.0000
     47 H          30.1105  -12.7191   65.6460 H         1 LIG11       0.0000
     48 H          28.9813  -10.6836   65.3740 H         1 LIG11       0.0000
     49 H          30.5019   -9.5781   67.6831 H         1 LIG11       0.0000
     50 H          27.6970   -9.5090   66.7819 H         1 LIG11       0.0000
     51 H          29.1216   -8.5008   69.2504 H         1 LIG11       0.0000
     52 H          27.5017   -9.1553   69.2761 H         1 LIG11       0.0000
     53 H          27.8175   -7.6357   68.4732 H         1 LIG11       0.0000
@<TRIPOS>BOND
     1    1    2 1
     2    2    3 1
     3    3    4 1
     4    4    5 1
     5    4    6 1
     6    6    7 1
     7    8    9 1
     8    9   10 am
     9   10   11 1
    10   10   12 2
    11   13   14 1
    12   14   15 1
    13   16   17 ar
    14   16   18 ar
    15   15   19 1
    16   19   20 1
    17   13   20 1
    18   21   22 2
    19   22   23 1
    20   20   21 1
    21   13    8 1
    22    8    4 1
    23   15   16 1
    24    1   24 1
    25    1   25 1
    26    1   26 1
    27    2   27 1
    28    2   28 1
    29    3   29 1
    30    3   30 1
    31    5   31 1
    32    5   32 1
    33    5   33 1
    34    7   34 1
    35    7   35 1
    36    7   36 1
    37    8   37 1
    38    9   38 1
    39   11   39 1
    40   11   40 1
    41   11   41 1
    42   13   42 1
    43   14   43 1
    44   14   44 1
    45   15   45 1
    46   19   46 1
    47   19   47 1
    48   20   48 1
    49   21   49 1
    50   22   50 1
    51   23   51 1
    52   23   52 1
    53   23   53 1
@<TRIPOS>SUBSTRUCTURE
1 LIG11 1
@<TRIPOS>COMMENT
424102 CHEMBL400553
PLANTSproteinTorsions
3
593 20.3171
841 270.4016
2683 112.6972
PLANTSmolcadARTstart hb
PLANTSmolcadARTstart HB
LINES
33.9303 -13.1846 66.1333 33.9619 -13.0708 64.1034 0 255 0 5
PLANTSmolcadARTstart HBCH
LINES
32.5637 -9.84512 66.0049 32.877 -8.317 66.861 255 0 0 5
33.9303 -13.1846 66.1333 35.9813 -12.8121 66.3855 255 0 0 5
33.9303 -13.1846 66.1333 33.9645 -14.8609 67.3978 255 0 0 5
PLANTSmolcadARTstart HB-CHO
LINES
PLANTSmolcadARTend
PLANTSmolcadARTstart HB_WATER
LINES
PLANTSmolcadARTend

PLANTSmolcadARTend

@<TRIPOS>MOLECULE
424102 CHEMBL400553_entry_00001_conf_08
53 53 1
SMALL
NO_CHARGES


@<TRIPOS>ATOM
      1 C          26.8869   -7.6697   63.4812 C.3       1 LIG11       0.0000
      2 C          27.3797   -9.0994   63.6260 C.3       1 LIG11       0.0000
      3 C          28.0554   -9.3958   64.9697 C.3       1 LIG11       0.0000
      4 C          28.5981  -10.8613   65.1823 C.3       1 LIG11       0.0000
      5 C          27.4857  -11.8102   64.6674 C.3       1 LIG11       0.0000
      6 O          29.8275  -11.0479   64.4364 O.3       1 LIG11       0.0000
      7 C          29.7971  -10.7766   63.0357 C.3       1 LIG11       0.0000
      8 C          28.9366  -11.1608   66.7342 C.3       1 LIG11       0.0000
      9 N          27.8111  -10.6886   67.6011 N.am      1 LIG11       0.0000
     10 C          27.5525   -9.3730   67.9272 C.2       1 LIG11       0.0000
     11 C          26.3598   -9.1534   68.8317 C.3       1 LIG11       0.0000
     12 O          28.2522   -8.4356   67.5544 O.2       1 LIG11       0.0000
     13 C          30.2442  -10.4592   67.2916 C.3       1 LIG11       0.0000
     14 N          31.5692  -10.8027   66.6990 N.4       1 LIG11       0.0000
     15 CA         32.0153  -12.0325   67.4143 C.3       1 LIG11       0.0000
     16 C          33.5455  -12.1686   67.3171 C.2       1 LIG11       0.0000
     17 O          33.9047  -13.0481   66.3393 O.co2     1 LIG11       0.0000
     18 OXT        34.3503  -11.6077   68.0247 O.co2     1 LIG11       0.0000
     19 C          31.5165  -11.8811   68.8382 C.3       1 LIG11       0.0000
     20 C          30.4966  -10.7332   68.8054 C.3       1 LIG11       0.0000
     21 C          30.9806   -9.5217   69.5780 C.2       1 LIG11       0.0000
     22 C          32.1537   -9.4834   70.2313 C.2       1 LIG11       0.0000
     23 C          32.6620   -8.2820   70.9585 C.3       1 LIG11       0.0000
     24 H          26.4305   -7.5452   62.5214 H         1 LIG11       0.0000
     25 H          27.7135   -6.9965   63.5730 H         1 LIG11       0.0000
     26 H          26.1696   -7.4603   64.2471 H         1 LIG11       0.0000
     27 H          28.0855   -9.2922   62.8453 H         1 LIG11       0.0000
     28 H          26.5172   -9.7301   63.5687 H         1 LIG11       0.0000
     29 H          27.3412   -9.1995   65.7419 H         1 LIG11       0.0000
     30 H          28.9223   -8.7692   64.9924 H         1 LIG11       0.0000
     31 H          27.2792  -11.5935   63.6401 H         1 LIG11       0.0000
     32 H          26.5980  -11.6670   65.2475 H         1 LIG11       0.0000
     33 H          27.8119  -12.8251   64.7593 H         1 LIG11       0.0000
     34 H          30.7653  -10.9551   62.6167 H         1 LIG11       0.0000
     35 H          29.5223   -9.7547   62.8762 H         1 LIG11       0.0000
     36 H          29.0808  -11.4163   62.5639 H         1 LIG11       0.0000
     37 H          29.0896  -12.2193   66.7671 H         1 LIG11       0.0000
     38 H          27.2060  -11.3727   67.9686 H         1 LIG11       0.0000
     39 H          25.8897  -10.0925   69.0363 H         1 LIG11       0.0000
     40 H          25.6611   -8.5024   68.3489 H         1 LIG11       0.0000
     41 H          26.6850   -8.7098   69.7494 H         1 LIG11       0.0000
     42 H          29.9780   -9.4566   67.0293 H         1 LIG11       0.0000
     43 H          32.2338  -10.0431   66.8463 H         1 LIG11       0.0000
     44 H          31.5076  -10.9507   65.6916 H         1 LIG11       0.0000
     45 H          31.6219  -12.9317   66.9882 H         1 LIG11       0.0000
     46 H          32.3275  -11.6401   69.4933 H         1 LIG11       0.0000
     47 H          31.0774  -12.7874   69.1997 H         1 LIG11       0.0000
     48 H          29.5803  -10.9869   69.2964 H         1 LIG11       0.0000
     49 H          30.3783   -8.6840   69.6033 H         1 LIG11       0.0000
     50 H          32.7379  -10.3340   70.2308 H         1 LIG11       0.0000
     51 H          31.9530   -7.4856   70.8707 H         1 LIG11       0.0000
     52 H          33.5957   -7.9768   70.5340 H         1 LIG11       0.0000
     53 H          32.8017   -8.5231   71.9916 H         1 LIG11       0.0000
@<TRIPOS>BOND
     1    1    2 1
     2    2    3 1
     3    3    4 1
     4    4    5 1
     5    4    6 1
     6    6    7 1
     7    8    9 1
     8    9   10 am
     9   10   11 1
    10   10   12 2
    11   13   14 1
    12   14   15 1
    13   16   17 ar
    14   16   18 ar
    15   15   19 1
    16   19   20 1
    17   13   20 1
    18   21   22 2
    19   22   23 1
    20   20   21 1
    21   13    8 1
    22    8    4 1
    23   15   16 1
    24    1   24 1
    25    1   25 1
    26    1   26 1
    27    2   27 1
    28    2   28 1
    29    3   29 1
    30    3   30 1
    31    5   31 1
    32    5   32 1
    33    5   33 1
    34    7   34 1
    35    7   35 1
    36    7   36 1
    37    8   37 1
    38    9   38 1
    39   11   39 1
    40   11   40 1
    41   11   41 1
    42   13   42 1
    43   14   43 1
    44   14   44 1
    45   15   45 1
    46   19   46 1
    47   19   47 1
    48   20   48 1
    49   21   49 1
    50   22   50 1
    51   23   51 1
    52   23   52 1
    53   23   53 1
@<TRIPOS>SUBSTRUCTURE
1 LIG11 1
@<TRIPOS>COMMENT
424102 CHEMBL400553
PLANTSproteinTorsions
3
593 143.7405
841 227.5827
2683 98.0707
PLANTSmolcadARTstart hb
PLANTSmolcadARTstart HB
LINES
33.9047 -13.0481 66.3393 33.8817 -13.2821 64.1627 0 255 0 5
PLANTSmolcadARTstart HBCH
LINES
32.2338 -10.0431 66.8463 32.877 -8.317 66.861 255 0 0 5
33.9047 -13.0481 66.3393 35.9813 -12.8121 66.3855 255 0 0 5
33.9047 -13.0481 66.3393 33.9645 -14.8609 67.3978 255 0 0 5
34.3503 -11.6077 68.0247 36.3655 -11.7535 67.7691 255 0 0 5
PLANTSmolcadARTstart HB-CHO
LINES
PLANTSmolcadARTend
PLANTSmolcadARTstart HB_WATER
LINES
PLANTSmolcadARTend

PLANTSmolcadARTend

@<TRIPOS>MOLECULE
424102 CHEMBL400553_entry_00001_conf_09
53 53 1
SMALL
NO_CHARGES


@<TRIPOS>ATOM
      1 C          26.5440  -11.3665   63.2226 C.3       1 LIG11       0.0000
      2 C          27.4760  -10.2145   63.5576 C.3       1 LIG11       0.0000
      3 C          27.3126   -9.6706   64.9814 C.3       1 LIG11       0.0000
      4 C          28.2868   -8.5074   65.4121 C.3       1 LIG11       0.0000
      5 C          28.2174   -7.4485   64.2822 C.3       1 LIG11       0.0000
      6 O          27.8590   -7.9458   66.6786 O.3       1 LIG11       0.0000
      7 C          26.5244   -7.4472   66.7621 C.3       1 LIG11       0.0000
      8 C          29.8018   -9.0327   65.6156 C.3       1 LIG11       0.0000
      9 N          30.3561   -9.5072   64.3083 N.am      1 LIG11       0.0000
     10 C          30.8587   -8.6949   63.3125 C.2       1 LIG11       0.0000
     11 C          31.3506   -9.4157   62.0767 C.3       1 LIG11       0.0000
     12 O          30.8769   -7.4695   63.3865 O.2       1 LIG11       0.0000
     13 C          29.9716  -10.2402   66.6285 C.3       1 LIG11       0.0000
     14 N          31.3415  -10.6701   67.0329 N.4       1 LIG11       0.0000
     15 CA         31.7952  -11.6033   65.9621 C.3       1 LIG11       0.0000
     16 C          32.9017  -12.5251   66.5053 C.2       1 LIG11       0.0000
     17 O          32.7707  -13.7944   66.0255 O.co2     1 LIG11       0.0000
     18 OXT        33.7689  -12.2033   67.2848 O.co2     1 LIG11       0.0000
     19 C          30.5536  -12.3535   65.5206 C.3       1 LIG11       0.0000
     20 C          29.3643  -11.5774   66.1055 C.3       1 LIG11       0.0000
     21 C          28.6310  -12.3765   67.1651 C.2       1 LIG11       0.0000
     22 C          28.8911  -13.6680   67.4270 C.2       1 LIG11       0.0000
     23 C          28.2074  -14.4537   68.4974 C.3       1 LIG11       0.0000
     24 H          26.7201  -11.6868   62.2169 H         1 LIG11       0.0000
     25 H          25.5286  -11.0442   63.3216 H         1 LIG11       0.0000
     26 H          26.7271  -12.1800   63.8932 H         1 LIG11       0.0000
     27 H          27.2858   -9.4175   62.8695 H         1 LIG11       0.0000
     28 H          28.4739  -10.5941   63.4851 H         1 LIG11       0.0000
     29 H          27.4613  -10.4854   65.6587 H         1 LIG11       0.0000
     30 H          26.3332   -9.2406   65.0071 H         1 LIG11       0.0000
     31 H          27.2068   -7.1164   64.1662 H         1 LIG11       0.0000
     32 H          28.5576   -7.8825   63.3652 H         1 LIG11       0.0000
     33 H          28.8398   -6.6157   64.5351 H         1 LIG11       0.0000
     34 H          26.3471   -7.0657   67.7460 H         1 LIG11       0.0000
     35 H          25.8344   -8.2389   66.5569 H         1 LIG11       0.0000
     36 H          26.3910   -6.6633   66.0462 H         1 LIG11       0.0000
     37 H          30.3179   -8.1870   66.0197 H         1 LIG11       0.0000
     38 H          30.3626  -10.4781   64.1459 H         1 LIG11       0.0000
     39 H          31.2495  -10.4718   62.2158 H         1 LIG11       0.0000
     40 H          32.3796   -9.1749   61.9091 H         1 LIG11       0.0000
     41 H          30.7706   -9.1102   61.2310 H         1 LIG11       0.0000
     42 H          29.4734   -9.7863   67.4595 H         1 LIG11       0.0000
     43 H          31.3145  -11.1469   67.9341 H         1 LIG11       0.0000
     44 H          31.9733   -9.8760   67.1371 H         1 LIG11       0.0000
     45 H          32.2297  -11.1004   65.1236 H         1 LIG11       0.0000
     46 H          30.5683  -13.3539   65.8999 H         1 LIG11       0.0000
     47 H          30.4931  -12.4212   64.4544 H         1 LIG11       0.0000
     48 H          28.6055  -11.3825   65.3766 H         1 LIG11       0.0000
     49 H          27.8947  -11.9042   67.7127 H         1 LIG11       0.0000
     50 H          29.6052  -14.1454   66.8551 H         1 LIG11       0.0000
     51 H          27.4993  -13.8294   69.0009 H         1 LIG11       0.0000
     52 H          28.9336  -14.8075   69.1992 H         1 LIG11       0.0000
     53 H          27.6996  -15.2873   68.0588 H         1 LIG11       0.0000
@<TRIPOS>BOND
     1    1    2 1
     2    2    3 1
     3    3    4 1
     4    4    5 1
     5    4    6 1
     6    6    7 1
     7    8    9 1
     8    9   10 am
     9   10   11 1
    10   10   12 2
    11   13   14 1
    12   14   15 1
    13   16   17 ar
    14   16   18 ar
    15   15   19 1
    16   19   20 1
    17   13   20 1
    18   21   22 2
    19   22   23 1
    20   20   21 1
    21   13    8 1
    22    8    4 1
    23   15   16 1
    24    1   24 1
    25    1   25 1
    26    1   26 1
    27    2   27 1
    28    2   28 1
    29    3   29 1
    30    3   30 1
    31    5   31 1
    32    5   32 1
    33    5   33 1
    34    7   34 1
    35    7   35 1
    36    7   36 1
    37    8   37 1
    38    9   38 1
    39   11   39 1
    40   11   40 1
    41   11   41 1
    42   13   42 1
    43   14   43 1
    44   14   44 1
    45   15   45 1
    46   19   46 1
    47   19   47 1
    48   20   48 1
    49   21   49 1
    50   22   50 1
    51   23   51 1
    52   23   52 1
    53   23   53 1
@<TRIPOS>SUBSTRUCTURE
1 LIG11 1
@<TRIPOS>COMMENT
424102 CHEMBL400553
PLANTSproteinTorsions
3
593 170.2133
841 164.9073
2683 81.1341
PLANTSmolcadARTstart hb
PLANTSmolcadARTstart HB
LINES
32.7707 -13.7944 66.0255 33.7656 -13.5262 64.1609 0 255 0 5
PLANTSmolcadARTstart HBCH
LINES
31.9733 -9.87599 67.1371 32.877 -8.317 66.861 255 0 0 5
32.7707 -13.7944 66.0255 31.4287 -14.6973 64.634 255 0 0 5
32.7707 -13.7944 66.0255 33.9645 -14.8609 67.3978 255 0 0 5
PLANTSmolcadARTstart HB-CHO
LINES
PLANTSmolcadARTend
PLANTSmolcadARTstart HB_WATER
LINES
PLANTSmolcadARTend

PLANTSmolcadARTend

@<TRIPOS>MOLECULE
424102 CHEMBL400553_entry_00001_conf_10
53 53 1
SMALL
NO_CHARGES


@<TRIPOS>ATOM
      1 C          30.3491   -6.5898   62.8442 C.3       1 LIG11       0.0000
      2 C          29.2926   -7.6305   63.1740 C.3       1 LIG11       0.0000
      3 C          29.3920   -8.1951   64.5957 C.3       1 LIG11       0.0000
      4 C          28.3968   -9.3610   64.9667 C.3       1 LIG11       0.0000
      5 C          26.9722   -8.8099   64.7028 C.3       1 LIG11       0.0000
      6 O          28.6659  -10.5235   64.1428 O.3       1 LIG11       0.0000
      7 C          27.8276  -11.6651   64.3185 C.3       1 LIG11       0.0000
      8 C          28.5577   -9.8253   66.5065 C.3       1 LIG11       0.0000
      9 N          27.7565   -8.9262   67.3958 N.am      1 LIG11       0.0000
     10 C          28.1640   -7.6918   67.8587 C.2       1 LIG11       0.0000
     11 C          27.1762   -6.9793   68.7561 C.3       1 LIG11       0.0000
     12 O          29.2627   -7.2057   67.6060 O.2       1 LIG11       0.0000
     13 C          30.0379   -9.7975   67.0731 C.3       1 LIG11       0.0000
     14 N          31.0956  -10.6050   66.3991 N.4       1 LIG11       0.0000
     15 CA         30.9793  -11.9729   66.9808 C.3       1 LIG11       0.0000
     16 C          32.3092  -12.7290   66.8107 C.2       1 LIG11       0.0000
     17 O          32.4814  -13.1477   65.5247 O.co2     1 LIG11       0.0000
     18 OXT        33.1036  -12.9667   67.6913 O.co2     1 LIG11       0.0000
     19 C          30.5876  -11.7685   68.4314 C.3       1 LIG11       0.0000
     20 C          30.1475  -10.3014   68.5443 C.3       1 LIG11       0.0000
     21 C          31.0959   -9.4889   69.4043 C.2       1 LIG11       0.0000
     22 C          30.6828   -8.6541   70.3721 C.2       1 LIG11       0.0000
     23 C          31.6072   -7.8823   71.2554 C.3       1 LIG11       0.0000
     24 H          30.2114   -6.2477   61.8398 H         1 LIG11       0.0000
     25 H          31.3215   -7.0251   62.9426 H         1 LIG11       0.0000
     26 H          30.2584   -5.7635   63.5180 H         1 LIG11       0.0000
     27 H          29.3924   -8.4412   62.4828 H         1 LIG11       0.0000
     28 H          28.3441   -7.1404   63.1024 H         1 LIG11       0.0000
     29 H          29.2159   -7.3894   65.2774 H         1 LIG11       0.0000
     30 H          30.3682   -8.6285   64.6581 H         1 LIG11       0.0000
     31 H          26.8899   -8.5095   63.6791 H         1 LIG11       0.0000
     32 H          26.7925   -7.9672   65.3372 H         1 LIG11       0.0000
     33 H          26.2508   -9.5725   64.9099 H         1 LIG11       0.0000
     34 H          28.1382  -12.4417   63.6512 H         1 LIG11       0.0000
     35 H          26.8130  -11.3984   64.1076 H         1 LIG11       0.0000
     36 H          27.9030  -12.0110   65.3282 H         1 LIG11       0.0000
     37 H          28.2221  -10.8413   66.5079 H         1 LIG11       0.0000
     38 H          26.8660   -9.2414   67.6731 H         1 LIG11       0.0000
     39 H          26.2874   -7.5680   68.8465 H         1 LIG11       0.0000
     40 H          26.9320   -6.0273   68.3329 H         1 LIG11       0.0000
     41 H          27.6106   -6.8384   69.7237 H         1 LIG11       0.0000
     42 H          30.2204   -8.7552   66.9142 H         1 LIG11       0.0000
     43 H          32.0183  -10.2138   66.5885 H         1 LIG11       0.0000
     44 H          30.9796  -10.6123   65.3857 H         1 LIG11       0.0000
     45 H          30.2440  -12.5762   66.4906 H         1 LIG11       0.0000
     46 H          31.4230  -11.9572   69.0729 H         1 LIG11       0.0000
     47 H          29.8061  -12.4375   68.7259 H         1 LIG11       0.0000
     48 H          29.2086  -10.1941   69.0462 H         1 LIG11       0.0000
     49 H          32.1101   -9.5821   69.2376 H         1 LIG11       0.0000
     50 H          29.6671   -8.5392   70.5137 H         1 LIG11       0.0000
     51 H          32.6203   -8.1033   70.9912 H         1 LIG11       0.0000
     52 H          31.4368   -8.1559   72.2758 H         1 LIG11       0.0000
     53 H          31.4269   -6.8348   71.1320 H         1 LIG11       0.0000
@<TRIPOS>BOND
     1    1    2 1
     2    2    3 1
     3    3    4 1
     4    4    5 1
     5    4    6 1
     6    6    7 1
     7    8    9 1
     8    9   10 am
     9   10   11 1
    10   10   12 2
    11   13   14 1
    12   14   15 1
    13   16   17 ar
    14   16   18 ar
    15   15   19 1
    16   19   20 1
    17   13   20 1
    18   21   22 2
    19   22   23 1
    20   20   21 1
    21   13    8 1
    22    8    4 1
    23   15   16 1
    24    1   24 1
    25    1   25 1
    26    1   26 1
    27    2   27 1
    28    2   28 1
    29    3   29 1
    30    3   30 1
    31    5   31 1
    32    5   32 1
    33    5   33 1
    34    7   34 1
    35    7   35 1
    36    7   36 1
    37    8   37 1
    38    9   38 1
    39   11   39 1
    40   11   40 1
    41   11   41 1
    42   13   42 1
    43   14   43 1
    44   14   44 1
    45   15   45 1
    46   19   46 1
    47   19   47 1
    48   20   48 1
    49   21   49 1
    50   22   50 1
    51   23   51 1
    52   23   52 1
    53   23   53 1
@<TRIPOS>SUBSTRUCTURE
1 LIG11 1
@<TRIPOS>COMMENT
424102 CHEMBL400553
PLANTSproteinTorsions
3
593 310.3648
841 264.6744
2683 79.8476
PLANTSmolcadARTstart hb
PLANTSmolcadARTstart HB
LINES
29.2627 -7.20571 67.606 29.245 -5.8475 66.5261 0 255 0 5
32.4814 -13.1477 65.5247 33.756 -13.5442 64.1577 0 255 0 5
PLANTSmolcadARTstart HBCH
LINES
32.0183 -10.2138 66.5885 32.877 -8.317 66.861 255 0 0 5
32.4814 -13.1477 65.5247 31.4287 -14.6973 64.634 255 0 0 5
33.1036 -12.9667 67.6913 33.9645 -14.8609 67.3978 255 0 0 5
PLANTSmolcadARTstart HB-CHO
LINES
PLANTSmolcadARTend
PLANTSmolcadARTstart HB_WATER
LINES
PLANTSmolcadARTend

PLANTSmolcadARTend

@<TRIPOS>MOLECULE
424102 CHEMBL400553_entry_00001_conf_11
53 53 1
SMALL
NO_CHARGES


@<TRIPOS>ATOM
      1 C          31.5806   -5.5809   61.3434 C.3       1 LIG11       0.0000
      2 C          30.9503   -6.3228   62.5098 C.3       1 LIG11       0.0000
      3 C          30.3490   -7.6823   62.1358 C.3       1 LIG11       0.0000
      4 C          29.7651   -8.5485   63.3175 C.3       1 LIG11       0.0000
      5 C          28.7258   -7.6501   64.0356 C.3       1 LIG11       0.0000
      6 O          29.1417   -9.7476   62.7922 O.3       1 LIG11       0.0000
      7 C          29.8543  -10.4795   61.7956 C.3       1 LIG11       0.0000
      8 C          30.9189   -9.0261   64.3437 C.3       1 LIG11       0.0000
      9 N          32.0871   -9.5678   63.5800 N.am      1 LIG11       0.0000
     10 C          33.1711   -8.8300   63.1500 C.2       1 LIG11       0.0000
     11 C          34.2197   -9.6070   62.3849 C.3       1 LIG11       0.0000
     12 O          33.2772   -7.6200   63.3290 O.2       1 LIG11       0.0000
     13 C          30.4938  -10.1647   65.3614 C.3       1 LIG11       0.0000
     14 N          31.4599  -10.6112   66.4065 N.4       1 LIG11       0.0000
     15 CA         32.3188  -11.6320   65.7405 C.3       1 LIG11       0.0000
     16 C          32.9565  -12.5503   66.7985 C.2       1 LIG11       0.0000
     17 O          33.9423  -13.3212   66.2576 O.co2     1 LIG11       0.0000
     18 OXT        32.6253  -12.6260   67.9593 O.co2     1 LIG11       0.0000
     19 C          31.4071  -12.3689   64.7787 C.3       1 LIG11       0.0000
     20 C          30.1361  -11.5139   64.6671 C.3       1 LIG11       0.0000
     21 C          28.9287  -12.2116   65.2626 C.2       1 LIG11       0.0000
     22 C          28.2040  -11.7003   66.2713 C.2       1 LIG11       0.0000
     23 C          26.9871  -12.3558   66.8369 C.3       1 LIG11       0.0000
     24 H          31.9748   -4.6470   61.6859 H         1 LIG11       0.0000
     25 H          30.8397   -5.4015   60.5927 H         1 LIG11       0.0000
     26 H          32.3713   -6.1718   60.9303 H         1 LIG11       0.0000
     27 H          30.1717   -5.7112   62.9156 H         1 LIG11       0.0000
     28 H          31.7339   -6.5150   63.2127 H         1 LIG11       0.0000
     29 H          31.1169   -8.2569   61.6616 H         1 LIG11       0.0000
     30 H          29.5097   -7.4562   61.5120 H         1 LIG11       0.0000
     31 H          27.9736   -7.3469   63.3376 H         1 LIG11       0.0000
     32 H          29.2151   -6.7845   64.4309 H         1 LIG11       0.0000
     33 H          28.2713   -8.1986   64.8340 H         1 LIG11       0.0000
     34 H          29.2806  -11.3335   61.5018 H         1 LIG11       0.0000
     35 H          30.7943  -10.8009   62.1932 H         1 LIG11       0.0000
     36 H          30.0224   -9.8528   60.9449 H         1 LIG11       0.0000
     37 H          31.1453   -8.1457   64.9081 H         1 LIG11       0.0000
     38 H          32.0815  -10.5289   63.3672 H         1 LIG11       0.0000
     39 H          33.9392  -10.6387   62.3429 H         1 LIG11       0.0000
     40 H          35.1640   -9.5140   62.8794 H         1 LIG11       0.0000
     41 H          34.2976   -9.2179   61.3912 H         1 LIG11       0.0000
     42 H          29.6828   -9.6371   65.8183 H         1 LIG11       0.0000
     43 H          30.9649  -11.0225   67.1978 H         1 LIG11       0.0000
     44 H          32.0090   -9.8336   66.7728 H         1 LIG11       0.0000
     45 H          33.1392  -11.2040   65.2032 H         1 LIG11       0.0000
     46 H          31.1704  -13.3402   65.1601 H         1 LIG11       0.0000
     47 H          31.8720  -12.5090   63.8252 H         1 LIG11       0.0000
     48 H          29.8453  -11.3451   63.6513 H         1 LIG11       0.0000
     49 H          28.6496  -13.1256   64.8730 H         1 LIG11       0.0000
     50 H          28.5058  -10.8018   66.6795 H         1 LIG11       0.0000
     51 H          26.8006  -13.2716   66.3160 H         1 LIG11       0.0000
     52 H          26.1461  -11.7038   66.7246 H         1 LIG11       0.0000
     53 H          27.1428  -12.5614   67.8754 H         1 LIG11       0.0000
@<TRIPOS>BOND
     1    1    2 1
     2    2    3 1
     3    3    4 1
     4    4    5 1
     5    4    6 1
     6    6    7 1
     7    8    9 1
     8    9   10 am
     9   10   11 1
    10   10   12 2
    11   13   14 1
    12   14   15 1
    13   16   17 ar
    14   16   18 ar
    15   15   19 1
    16   19   20 1
    17   13   20 1
    18   21   22 2
    19   22   23 1
    20   20   21 1
    21   13    8 1
    22    8    4 1
    23   15   16 1
    24    1   24 1
    25    1   25 1
    26    1   26 1
    27    2   27 1
    28    2   28 1
    29    3   29 1
    30    3   30 1
    31    5   31 1
    32    5   32 1
    33    5   33 1
    34    7   34 1
    35    7   35 1
    36    7   36 1
    37    8   37 1
    38    9   38 1
    39   11   39 1
    40   11   40 1
    41   11   41 1
    42   13   42 1
    43   14   43 1
    44   14   44 1
    45   15   45 1
    46   19   46 1
    47   19   47 1
    48   20   48 1
    49   21   49 1
    50   22   50 1
    51   23   51 1
    52   23   52 1
    53   23   53 1
@<TRIPOS>SUBSTRUCTURE
1 LIG11 1
@<TRIPOS>COMMENT
424102 CHEMBL400553
PLANTSproteinTorsions
3
593 176.4858
841 195.2551
2683 80.1114
PLANTSmolcadARTstart hb
PLANTSmolcadARTstart HB
LINES
33.9423 -13.3212 66.2576 33.758 -13.5405 64.1584 0 255 0 5
PLANTSmolcadARTstart HBCH
LINES
32.009 -9.83357 66.7728 32.877 -8.317 66.861 255 0 0 5
33.9423 -13.3212 66.2576 35.9813 -12.8121 66.3855 255 0 0 5
33.9423 -13.3212 66.2576 33.9645 -14.8609 67.3978 255 0 0 5
PLANTSmolcadARTstart HB-CHO
LINES
PLANTSmolcadARTend
PLANTSmolcadARTstart HB_WATER
LINES
PLANTSmolcadARTend

PLANTSmolcadARTend

@<TRIPOS>MOLECULE
424102 CHEMBL400553_entry_00001_conf_12
53 53 1
SMALL
NO_CHARGES


@<TRIPOS>ATOM
      1 C          33.2867   -9.7857   63.0839 C.3       1 LIG11       0.0000
      2 C          32.6526  -10.4398   64.2996 C.3       1 LIG11       0.0000
      3 C          31.3110  -11.1242   64.0141 C.3       1 LIG11       0.0000
      4 C          30.5507  -11.7382   65.2521 C.3       1 LIG11       0.0000
      5 C          29.1199  -12.0696   64.7561 C.3       1 LIG11       0.0000
      6 O          31.2326  -12.9332   65.7098 O.3       1 LIG11       0.0000
      7 C          32.5150  -12.7706   66.3146 C.3       1 LIG11       0.0000
      8 C          30.5034  -10.7132   66.5009 C.3       1 LIG11       0.0000
      9 N          29.9413  -11.4030   67.7049 N.am      1 LIG11       0.0000
     10 C          30.6223  -11.6351   68.8823 C.2       1 LIG11       0.0000
     11 C          29.8372  -12.3641   69.9505 C.3       1 LIG11       0.0000
     12 O          31.7954  -11.3178   69.0569 O.2       1 LIG11       0.0000
     13 C          29.6161   -9.4178   66.2830 C.3       1 LIG11       0.0000
     14 N          29.8449   -8.2201   67.1420 N.4       1 LIG11       0.0000
     15 CA         29.0504   -8.4639   68.3800 C.3       1 LIG11       0.0000
     16 C          28.7452   -7.1265   69.0781 C.2       1 LIG11       0.0000
     17 O          28.7802   -7.2552   70.4349 O.co2     1 LIG11       0.0000
     18 OXT        28.4724   -6.0869   68.5233 O.co2     1 LIG11       0.0000
     19 C          27.8052   -9.2017   67.9280 C.3       1 LIG11       0.0000
     20 C          28.0919   -9.6687   66.4932 C.3       1 LIG11       0.0000
     21 C          27.2072   -8.9677   65.4807 C.2       1 LIG11       0.0000
     22 C          27.6870   -8.3003   64.4184 C.2       1 LIG11       0.0000
     23 C          26.8257   -7.6437   63.3901 C.3       1 LIG11       0.0000
     24 H          34.2144   -9.3330   63.3656 H         1 LIG11       0.0000
     25 H          32.6275   -9.0369   62.6972 H         1 LIG11       0.0000
     26 H          33.4649  -10.5265   62.3326 H         1 LIG11       0.0000
     27 H          32.4938   -9.6859   65.0422 H         1 LIG11       0.0000
     28 H          33.3262  -11.2050   64.6246 H         1 LIG11       0.0000
     29 H          31.4932  -11.9176   63.3197 H         1 LIG11       0.0000
     30 H          30.6718  -10.3480   63.6487 H         1 LIG11       0.0000
     31 H          29.1768  -12.7484   63.9308 H         1 LIG11       0.0000
     32 H          28.6330  -11.1693   64.4445 H         1 LIG11       0.0000
     33 H          28.5625  -12.5200   65.5507 H         1 LIG11       0.0000
     34 H          32.8977  -13.7275   66.6020 H         1 LIG11       0.0000
     35 H          32.4247  -12.1479   67.1801 H         1 LIG11       0.0000
     36 H          33.1838  -12.3142   65.6151 H         1 LIG11       0.0000
     37 H          31.5201  -10.4014   66.6197 H         1 LIG11       0.0000
     38 H          29.0097  -11.7166   67.6522 H         1 LIG11       0.0000
     39 H          28.8424  -12.5453   69.6008 H         1 LIG11       0.0000
     40 H          29.8003  -11.7658   70.8369 H         1 LIG11       0.0000
     41 H          30.3137  -13.2967   70.1694 H         1 LIG11       0.0000
     42 H          29.9287   -9.2109   65.2808 H         1 LIG11       0.0000
     43 H          29.5211   -7.3755   66.6706 H         1 LIG11       0.0000
     44 H          30.8348   -8.0834   67.3470 H         1 LIG11       0.0000
     45 H          29.5737   -9.0509   69.1055 H         1 LIG11       0.0000
     46 H          26.9583   -8.5479   67.9446 H         1 LIG11       0.0000
     47 H          27.5804  -10.0258   68.5724 H         1 LIG11       0.0000
     48 H          27.8604  -10.7030   66.3464 H         1 LIG11       0.0000
     49 H          26.1846   -9.0053   65.6146 H         1 LIG11       0.0000
     50 H          28.7109   -8.2375   64.3061 H         1 LIG11       0.0000
     51 H          25.7959   -7.7930   63.6394 H         1 LIG11       0.0000
     52 H          27.0261   -8.0725   62.4304 H         1 LIG11       0.0000
     53 H          27.0379   -6.5952   63.3637 H         1 LIG11       0.0000
@<TRIPOS>BOND
     1    1    2 1
     2    2    3 1
     3    3    4 1
     4    4    5 1
     5    4    6 1
     6    6    7 1
     7    8    9 1
     8    9   10 am
     9   10   11 1
    10   10   12 2
    11   13   14 1
    12   14   15 1
    13   16   17 ar
    14   16   18 ar
    15   15   19 1
    16   19   20 1
    17   13   20 1
    18   21   22 2
    19   22   23 1
    20   20   21 1
    21   13    8 1
    22    8    4 1
    23   15   16 1
    24    1   24 1
    25    1   25 1
    26    1   26 1
    27    2   27 1
    28    2   28 1
    29    3   29 1
    30    3   30 1
    31    5   31 1
    32    5   32 1
    33    5   33 1
    34    7   34 1
    35    7   35 1
    36    7   36 1
    37    8   37 1
    38    9   38 1
    39   11   39 1
    40   11   40 1
    41   11   41 1
    42   13   42 1
    43   14   43 1
    44   14   44 1
    45   15   45 1
    46   19   46 1
    47   19   47 1
    48   20   48 1
    49   21   49 1
    50   22   50 1
    51   23   51 1
    52   23   52 1
    53   23   53 1
@<TRIPOS>SUBSTRUCTURE
1 LIG11 1
@<TRIPOS>COMMENT
424102 CHEMBL400553
PLANTSproteinTorsions
3
593 180.9373
841 177.9586
2683 52.1915
PLANTSmolcadARTstart hb
PLANTSmolcadARTstart HB
LINES
31.2326 -12.9332 65.7098 31.4287 -14.6973 64.634 0 255 0 5
PLANTSmolcadARTstart HBCH
LINES
30.8348 -8.08343 67.347 32.877 -8.317 66.861 255 0 0 5
28.4724 -6.08686 68.5233 30.1457 -4.94537 68.7023 255 0 0 5
28.4724 -6.08686 68.5233 29.245 -5.8475 66.5261 255 0 0 5
28.4724 -6.08686 68.5233 27.8673 -4.4679 67.7309 255 0 0 5
PLANTSmolcadARTstart HB-CHO
LINES
PLANTSmolcadARTend
PLANTSmolcadARTstart HB_WATER
LINES
PLANTSmolcadARTend

PLANTSmolcadARTend

@<TRIPOS>MOLECULE
424102 CHEMBL400553_entry_00001_conf_13
53 53 1
SMALL
NO_CHARGES


@<TRIPOS>ATOM
      1 C          26.7674   -9.5978   69.1194 C.3       1 LIG11       0.0000
      2 C          27.4034   -9.7901   67.7532 C.3       1 LIG11       0.0000
      3 C          27.6755   -8.4832   66.9996 C.3       1 LIG11       0.0000
      4 C          28.2946   -8.6136   65.5549 C.3       1 LIG11       0.0000
      5 C          27.3870   -9.6084   64.7869 C.3       1 LIG11       0.0000
      6 O          28.3131   -7.3177   64.9046 O.3       1 LIG11       0.0000
      7 C          28.4276   -7.2947   63.4823 C.3       1 LIG11       0.0000
      8 C          29.8211   -9.1431   65.5974 C.3       1 LIG11       0.0000
      9 N          30.2555   -9.5554   64.2253 N.am      1 LIG11       0.0000
     10 C          31.0675   -8.8164   63.3895 C.2       1 LIG11       0.0000
     11 C          31.3539   -9.4457   62.0438 C.3       1 LIG11       0.0000
     12 O          31.5037   -7.7064   63.6810 O.2       1 LIG11       0.0000
     13 C          30.0797  -10.3953   66.5344 C.3       1 LIG11       0.0000
     14 N          31.4722  -10.8969   66.7191 N.4       1 LIG11       0.0000
     15 CA         31.7215  -11.8055   65.5634 C.3       1 LIG11       0.0000
     16 C          32.8510  -12.7928   65.9079 C.2       1 LIG11       0.0000
     17 O          32.3537  -13.9731   66.3751 O.co2     1 LIG11       0.0000
     18 OXT        34.0363  -12.5683   65.8190 O.co2     1 LIG11       0.0000
     19 C          30.3954  -12.4859   65.2847 C.3       1 LIG11       0.0000
     20 C          29.3412  -11.6847   66.0629 C.3       1 LIG11       0.0000
     21 C          28.7330  -12.4936   67.1919 C.2       1 LIG11       0.0000
     22 C          28.9874  -13.7983   67.3852 C.2       1 LIG11       0.0000
     23 C          28.4303  -14.5955   68.5186 C.3       1 LIG11       0.0000
     24 H          26.6109  -10.5521   69.5775 H         1 LIG11       0.0000
     25 H          25.8283   -9.0972   69.0085 H         1 LIG11       0.0000
     26 H          27.4152   -9.0088   69.7346 H         1 LIG11       0.0000
     27 H          26.7468  -10.3903   67.1585 H         1 LIG11       0.0000
     28 H          28.3531  -10.2547   67.9177 H         1 LIG11       0.0000
     29 H          28.3525   -7.9030   67.5911 H         1 LIG11       0.0000
     30 H          26.7138   -8.0375   66.8540 H         1 LIG11       0.0000
     31 H          26.3835   -9.2372   64.7721 H         1 LIG11       0.0000
     32 H          27.4079  -10.5602   65.2752 H         1 LIG11       0.0000
     33 H          27.7430   -9.7144   63.7835 H         1 LIG11       0.0000
     34 H          28.4285   -6.2806   63.1409 H         1 LIG11       0.0000
     35 H          27.5995   -7.8160   63.0493 H         1 LIG11       0.0000
     36 H          29.3405   -7.7702   63.1902 H         1 LIG11       0.0000
     37 H          30.3722   -8.3153   65.9922 H         1 LIG11       0.0000
     38 H          29.9356  -10.4248   63.8922 H         1 LIG11       0.0000
     39 H          30.8856  -10.4063   61.9924 H         1 LIG11       0.0000
     40 H          32.4109   -9.5570   61.9198 H         1 LIG11       0.0000
     41 H          30.9679   -8.8187   61.2675 H         1 LIG11       0.0000
     42 H          29.7291   -9.9540   67.4440 H         1 LIG11       0.0000
     43 H          31.5542  -11.4071   67.5985 H         1 LIG11       0.0000
     44 H          32.1487  -10.1344   66.7553 H         1 LIG11       0.0000
     45 H          32.0527  -11.2886   64.6871 H         1 LIG11       0.0000
     46 H          30.4183  -13.5001   65.6248 H         1 LIG11       0.0000
     47 H          30.1777  -12.5092   64.2373 H         1 LIG11       0.0000
     48 H          28.4945  -11.4303   65.4600 H         1 LIG11       0.0000
     49 H          28.0910  -12.0178   67.8450 H         1 LIG11       0.0000
     50 H          29.6041  -14.2780   66.7110 H         1 LIG11       0.0000
     51 H          27.8148  -13.9672   69.1278 H         1 LIG11       0.0000
     52 H          29.2331  -14.9875   69.1074 H         1 LIG11       0.0000
     53 H          27.8438  -15.4029   68.1324 H         1 LIG11       0.0000
@<TRIPOS>BOND
     1    1    2 1
     2    2    3 1
     3    3    4 1
     4    4    5 1
     5    4    6 1
     6    6    7 1
     7    8    9 1
     8    9   10 am
     9   10   11 1
    10   10   12 2
    11   13   14 1
    12   14   15 1
    13   16   17 ar
    14   16   18 ar
    15   15   19 1
    16   19   20 1
    17   13   20 1
    18   21   22 2
    19   22   23 1
    20   20   21 1
    21   13    8 1
    22    8    4 1
    23   15   16 1
    24    1   24 1
    25    1   25 1
    26    1   26 1
    27    2   27 1
    28    2   28 1
    29    3   29 1
    30    3   30 1
    31    5   31 1
    32    5   32 1
    33    5   33 1
    34    7   34 1
    35    7   35 1
    36    7   36 1
    37    8   37 1
    38    9   38 1
    39   11   39 1
    40   11   40 1
    41   11   41 1
    42   13   42 1
    43   14   43 1
    44   14   44 1
    45   15   45 1
    46   19   46 1
    47   19   47 1
    48   20   48 1
    49   21   49 1
    50   22   50 1
    51   23   51 1
    52   23   52 1
    53   23   53 1
@<TRIPOS>SUBSTRUCTURE
1 LIG11 1
@<TRIPOS>COMMENT
424102 CHEMBL400553
PLANTSproteinTorsions
3
593 33.1901
841 248.5300
2683 129.5582
PLANTSmolcadARTstart hb
PLANTSmolcadARTstart HB
LINES
34.0363 -12.5683 65.819 34.0239 -12.8453 63.9703 0 255 0 5
PLANTSmolcadARTstart HBCH
LINES
32.1487 -10.1344 66.7553 32.877 -8.317 66.861 255 0 0 5
32.3537 -13.9731 66.3751 31.4287 -14.6973 64.634 255 0 0 5
32.3537 -13.9731 66.3751 33.9645 -14.8609 67.3978 255 0 0 5
34.0363 -12.5683 65.819 35.9813 -12.8121 66.3855 255 0 0 5
PLANTSmolcadARTstart HB-CHO
LINES
PLANTSmolcadARTend
PLANTSmolcadARTstart HB_WATER
LINES
PLANTSmolcadARTend

PLANTSmolcadARTend

@<TRIPOS>MOLECULE
424102 CHEMBL400553_entry_00001_conf_14
53 53 1
SMALL
NO_CHARGES


@<TRIPOS>ATOM
      1 C          33.0561  -10.0277   63.6813 C.3       1 LIG11       0.0000
      2 C          31.6198  -10.2840   64.1046 C.3       1 LIG11       0.0000
      3 C          31.3953  -11.6497   64.7637 C.3       1 LIG11       0.0000
      4 C          29.9277  -11.9735   65.2420 C.3       1 LIG11       0.0000
      5 C          29.0111  -11.7181   64.0182 C.3       1 LIG11       0.0000
      6 O          29.8414  -13.3538   65.6777 O.3       1 LIG11       0.0000
      7 C          30.5931  -13.7299   66.8310 C.3       1 LIG11       0.0000
      8 C          29.4840  -11.0536   66.4947 C.3       1 LIG11       0.0000
      9 N          28.0613  -11.3430   66.8602 N.am      1 LIG11       0.0000
     10 C          27.6359  -11.8535   68.0695 C.2       1 LIG11       0.0000
     11 C          26.1434  -12.0694   68.1913 C.3       1 LIG11       0.0000
     12 O          28.4012  -12.1566   68.9805 O.2       1 LIG11       0.0000
     13 C          29.5651   -9.4894   66.2511 C.3       1 LIG11       0.0000
     14 N          29.3953   -8.5586   67.4042 N.4       1 LIG11       0.0000
     15 CA         27.9226   -8.3822   67.5562 C.3       1 LIG11       0.0000
     16 C          27.6268   -7.0676   68.3001 C.2       1 LIG11       0.0000
     17 O          26.3347   -7.0217   68.7329 O.co2     1 LIG11       0.0000
     18 OXT        28.4081   -6.1592   68.4660 O.co2     1 LIG11       0.0000
     19 C          27.3595   -8.4138   66.1486 C.3       1 LIG11       0.0000
     20 C          28.4856   -8.9604   65.2586 C.3       1 LIG11       0.0000
     21 C          29.0006   -7.9148   64.2887 C.2       1 LIG11       0.0000
     22 C          30.2972   -7.5797   64.1847 C.2       1 LIG11       0.0000
     23 C          30.8230   -6.5843   63.2033 C.3       1 LIG11       0.0000
     24 H          33.1282   -9.0590   63.2326 H         1 LIG11       0.0000
     25 H          33.3577  -10.7717   62.9741 H         1 LIG11       0.0000
     26 H          33.6940  -10.0717   64.5393 H         1 LIG11       0.0000
     27 H          30.9978  -10.2239   63.2360 H         1 LIG11       0.0000
     28 H          31.3778   -9.5439   64.8385 H         1 LIG11       0.0000
     29 H          32.0349  -11.7055   65.6197 H         1 LIG11       0.0000
     30 H          31.6068  -12.3684   63.9998 H         1 LIG11       0.0000
     31 H          29.3236  -12.3370   63.2031 H         1 LIG11       0.0000
     32 H          29.0778  -10.6896   63.7311 H         1 LIG11       0.0000
     33 H          27.9991  -11.9516   64.2758 H         1 LIG11       0.0000
     34 H          30.4361  -14.7683   67.0360 H         1 LIG11       0.0000
     35 H          30.2733  -13.1484   67.6704 H         1 LIG11       0.0000
     36 H          31.6333  -13.5550   66.6515 H         1 LIG11       0.0000
     37 H          30.1849  -11.3055   67.2630 H         1 LIG11       0.0000
     38 H          27.3731  -11.1535   66.1823 H         1 LIG11       0.0000
     39 H          25.6612  -11.7410   67.2943 H         1 LIG11       0.0000
     40 H          25.7688  -11.5101   69.0230 H         1 LIG11       0.0000
     41 H          25.9447  -13.1098   68.3427 H         1 LIG11       0.0000
     42 H          30.5784   -9.4617   65.9083 H         1 LIG11       0.0000
     43 H          29.8438   -7.6635   67.2094 H         1 LIG11       0.0000
     44 H          29.8235   -8.9253   68.2543 H         1 LIG11       0.0000
     45 H          27.4664   -9.1510   68.1442 H         1 LIG11       0.0000
     46 H          27.0826   -7.4287   65.8360 H         1 LIG11       0.0000
     47 H          26.4812   -9.0222   66.0898 H         1 LIG11       0.0000
     48 H          28.1522   -9.7480   64.6156 H         1 LIG11       0.0000
     49 H          28.3204   -7.4364   63.6775 H         1 LIG11       0.0000
     50 H          30.9695   -8.0369   64.8202 H         1 LIG11       0.0000
     51 H          30.0142   -6.1987   62.6185 H         1 LIG11       0.0000
     52 H          31.5339   -7.0591   62.5598 H         1 LIG11       0.0000
     53 H          31.2975   -5.7819   63.7286 H         1 LIG11       0.0000
@<TRIPOS>BOND
     1    1    2 1
     2    2    3 1
     3    3    4 1
     4    4    5 1
     5    4    6 1
     6    6    7 1
     7    8    9 1
     8    9   10 am
     9   10   11 1
    10   10   12 2
    11   13   14 1
    12   14   15 1
    13   16   17 ar
    14   16   18 ar
    15   15   19 1
    16   19   20 1
    17   13   20 1
    18   21   22 2
    19   22   23 1
    20   20   21 1
    21   13    8 1
    22    8    4 1
    23   15   16 1
    24    1   24 1
    25    1   25 1
    26    1   26 1
    27    2   27 1
    28    2   28 1
    29    3   29 1
    30    3   30 1
    31    5   31 1
    32    5   32 1
    33    5   33 1
    34    7   34 1
    35    7   35 1
    36    7   36 1
    37    8   37 1
    38    9   38 1
    39   11   39 1
    40   11   40 1
    41   11   41 1
    42   13   42 1
    43   14   43 1
    44   14   44 1
    45   15   45 1
    46   19   46 1
    47   19   47 1
    48   20   48 1
    49   21   49 1
    50   22   50 1
    51   23   51 1
    52   23   52 1
    53   23   53 1
@<TRIPOS>SUBSTRUCTURE
1 LIG11 1
@<TRIPOS>COMMENT
424102 CHEMBL400553
PLANTSproteinTorsions
3
593 172.5094
841 4.6593
2683 289.5578
PLANTSmolcadARTstart hb
PLANTSmolcadARTstart HB
LINES
29.8414 -13.3538 65.6777 29.1737 -14.881 64.7372 0 255 0 5
PLANTSmolcadARTstart HBCH
LINES
28.4081 -6.15924 68.466 30.1408 -5.03716 68.8204 255 0 0 5
28.4081 -6.15924 68.466 29.245 -5.8475 66.5261 255 0 0 5
28.4081 -6.15924 68.466 27.8673 -4.4679 67.7309 255 0 0 5
PLANTSmolcadARTstart HB-CHO
LINES
PLANTSmolcadARTend
PLANTSmolcadARTstart HB_WATER
LINES
PLANTSmolcadARTend

PLANTSmolcadARTend

@<TRIPOS>MOLECULE
424102 CHEMBL400553_entry_00001_conf_15
53 53 1
SMALL
NO_CHARGES


@<TRIPOS>ATOM
      1 C          32.5874   -6.9882   72.4171 C.3       1 LIG11       0.0000
      2 C          32.3623   -8.0943   71.4003 C.3       1 LIG11       0.0000
      3 C          31.2127   -9.0449   71.7534 C.3       1 LIG11       0.0000
      4 C          30.9840  -10.2705   70.7873 C.3       1 LIG11       0.0000
      5 C          32.3293  -11.0394   70.7431 C.3       1 LIG11       0.0000
      6 O          29.9199  -11.1126   71.2981 O.3       1 LIG11       0.0000
      7 C          30.0890  -11.6731   72.5996 C.3       1 LIG11       0.0000
      8 C          30.5430   -9.7977   69.3059 C.3       1 LIG11       0.0000
      9 N          29.3590   -8.8857   69.3939 N.am      1 LIG11       0.0000
     10 C          29.1597   -7.7596   68.6217 C.2       1 LIG11       0.0000
     11 C          27.8863   -6.9952   68.9095 C.3       1 LIG11       0.0000
     12 O          29.9656   -7.3651   67.7837 O.2       1 LIG11       0.0000
     13 C          30.1260  -10.9641   68.3168 C.3       1 LIG11       0.0000
     14 N          31.0539  -12.1128   68.1063 N.4       1 LIG11       0.0000
     15 CA         32.0078  -11.6624   67.0524 C.3       1 LIG11       0.0000
     16 C          32.6350  -12.8842   66.3573 C.2       1 LIG11       0.0000
     17 O          31.6779  -13.7353   65.8899 O.co2     1 LIG11       0.0000
     18 OXT        33.8194  -13.1060   66.2530 O.co2     1 LIG11       0.0000
     19 C          31.1977  -10.7894   66.1138 C.3       1 LIG11       0.0000
     20 C          29.8880  -10.4803   66.8541 C.3       1 LIG11       0.0000
     21 C          28.6904  -11.1218   66.1807 C.2       1 LIG11       0.0000
     22 C          28.6811  -11.4938   64.8900 C.2       1 LIG11       0.0000
     23 C          27.5246  -12.1666   64.2265 C.3       1 LIG11       0.0000
     24 H          33.4022   -6.3719   72.0990 H         1 LIG11       0.0000
     25 H          32.8171   -7.4199   73.3688 H         1 LIG11       0.0000
     26 H          31.7015   -6.3938   72.4995 H         1 LIG11       0.0000
     27 H          33.2618   -8.6687   71.3241 H         1 LIG11       0.0000
     28 H          32.0967   -7.6177   70.4799 H         1 LIG11       0.0000
     29 H          30.3100   -8.4707   71.7676 H         1 LIG11       0.0000
     30 H          31.4835   -9.4759   72.6945 H         1 LIG11       0.0000
     31 H          32.6001  -11.3415   71.7333 H         1 LIG11       0.0000
     32 H          33.0910  -10.4028   70.3437 H         1 LIG11       0.0000
     33 H          32.2254  -11.9044   70.1220 H         1 LIG11       0.0000
     34 H          29.2340  -12.2673   72.8459 H         1 LIG11       0.0000
     35 H          30.1943  -10.8854   73.3162 H         1 LIG11       0.0000
     36 H          30.9655  -12.2866   72.6126 H         1 LIG11       0.0000
     37 H          31.4195   -9.3273   68.9117 H         1 LIG11       0.0000
     38 H          28.6659   -9.1076   70.0569 H         1 LIG11       0.0000
     39 H          27.3278   -7.5048   69.6666 H         1 LIG11       0.0000
     40 H          27.2999   -6.9299   68.0168 H         1 LIG11       0.0000
     41 H          28.1304   -6.0102   69.2486 H         1 LIG11       0.0000
     42 H          29.2607  -11.2904   68.8550 H         1 LIG11       0.0000
     43 H          30.5384  -12.9354   67.7932 H         1 LIG11       0.0000
     44 H          31.5350  -12.3749   68.9667 H         1 LIG11       0.0000
     45 H          32.8318  -11.1032   67.4436 H         1 LIG11       0.0000
     46 H          30.9958  -11.3107   65.2015 H         1 LIG11       0.0000
     47 H          31.7245   -9.8945   65.8560 H         1 LIG11       0.0000
     48 H          29.6474   -9.4378   66.8405 H         1 LIG11       0.0000
     49 H          27.8393  -11.2806   66.7424 H         1 LIG11       0.0000
     50 H          29.5226  -11.3036   64.3236 H         1 LIG11       0.0000
     51 H          26.7329  -12.2956   64.9346 H         1 LIG11       0.0000
     52 H          27.8321  -13.1226   63.8572 H         1 LIG11       0.0000
     53 H          27.1803  -11.5636   63.4124 H         1 LIG11       0.0000
@<TRIPOS>BOND
     1    1    2 1
     2    2    3 1
     3    3    4 1
     4    4    5 1
     5    4    6 1
     6    6    7 1
     7    8    9 1
     8    9   10 am
     9   10   11 1
    10   10   12 2
    11   13   14 1
    12   14   15 1
    13   16   17 ar
    14   16   18 ar
    15   15   19 1
    16   19   20 1
    17   13   20 1
    18   21   22 2
    19   22   23 1
    20   20   21 1
    21   13    8 1
    22    8    4 1
    23   15   16 1
    24    1   24 1
    25    1   25 1
    26    1   26 1
    27    2   27 1
    28    2   28 1
    29    3   29 1
    30    3   30 1
    31    5   31 1
    32    5   32 1
    33    5   33 1
    34    7   34 1
    35    7   35 1
    36    7   36 1
    37    8   37 1
    38    9   38 1
    39   11   39 1
    40   11   40 1
    41   11   41 1
    42   13   42 1
    43   14   43 1
    44   14   44 1
    45   15   45 1
    46   19   46 1
    47   19   47 1
    48   20   48 1
    49   21   49 1
    50   22   50 1
    51   23   51 1
    52   23   52 1
    53   23   53 1
@<TRIPOS>SUBSTRUCTURE
1 LIG11 1
@<TRIPOS>COMMENT
424102 CHEMBL400553
PLANTSproteinTorsions
3
593 258.1424
841 217.6126
2683 101.3217
PLANTSmolcadARTstart hb
PLANTSmolcadARTstart HB
LINES
29.9656 -7.36508 67.7837 29.245 -5.8475 66.5261 0 255 0 5
33.8194 -13.106 66.253 33.9014 -13.2346 64.1544 0 255 0 5
PLANTSmolcadARTstart HBCH
LINES
31.6779 -13.7353 65.8899 31.4287 -14.6973 64.634 255 0 0 5
33.8194 -13.106 66.253 35.9813 -12.8121 66.3855 255 0 0 5
33.8194 -13.106 66.253 33.9645 -14.8609 67.3978 255 0 0 5
PLANTSmolcadARTstart HB-CHO
LINES
PLANTSmolcadARTend
PLANTSmolcadARTstart HB_WATER
LINES
PLANTSmolcadARTend

PLANTSmolcadARTend

@<TRIPOS>MOLECULE
424102 CHEMBL400553_entry_00001_conf_16
53 53 1
SMALL
NO_CHARGES


@<TRIPOS>ATOM
      1 C          26.3474   -8.2723   66.9541 C.3       1 LIG11       0.0000
      2 C          27.7758   -7.9915   67.3887 C.3       1 LIG11       0.0000
      3 C          28.1423   -8.5821   68.7549 C.3       1 LIG11       0.0000
      4 C          28.0460  -10.1498   68.8986 C.3       1 LIG11       0.0000
      5 C          28.5088  -10.4781   70.3411 C.3       1 LIG11       0.0000
      6 O          26.6804  -10.5849   68.6786 O.3       1 LIG11       0.0000
      7 C          25.6631  -10.0031   69.4930 C.3       1 LIG11       0.0000
      8 C          28.9665  -10.9136   67.8115 C.3       1 LIG11       0.0000
      9 N          28.8920  -12.3927   68.0304 N.am      1 LIG11       0.0000
     10 C          28.9606  -13.3507   67.0398 C.2       1 LIG11       0.0000
     11 C          28.8488  -14.7824   67.5157 C.3       1 LIG11       0.0000
     12 O          29.0636  -13.0809   65.8464 O.2       1 LIG11       0.0000
     13 C          30.5072  -10.5419   67.8453 C.3       1 LIG11       0.0000
     14 N          31.3899  -10.9746   66.7234 N.4       1 LIG11       0.0000
     15 CA         31.7966  -12.3700   67.0561 C.3       1 LIG11       0.0000
     16 C          33.1000  -12.7253   66.3185 C.2       1 LIG11       0.0000
     17 O          33.0961  -14.0229   65.9004 O.co2     1 LIG11       0.0000
     18 OXT        34.0385  -11.9820   66.1460 O.co2     1 LIG11       0.0000
     19 C          31.9333  -12.4072   68.5658 C.3       1 LIG11       0.0000
     20 C          31.2584  -11.1268   69.0797 C.3       1 LIG11       0.0000
     21 C          32.2561  -10.1703   69.7033 C.2       1 LIG11       0.0000
     22 C          32.1382   -9.6922   70.9530 C.2       1 LIG11       0.0000
     23 C          33.1365   -8.7852   71.5942 C.3       1 LIG11       0.0000
     24 H          26.1724   -7.8290   65.9961 H         1 LIG11       0.0000
     25 H          25.6688   -7.8562   67.6690 H         1 LIG11       0.0000
     26 H          26.1951   -9.3296   66.8910 H         1 LIG11       0.0000
     27 H          27.9108   -6.9311   67.4339 H         1 LIG11       0.0000
     28 H          28.4147   -8.4594   66.6691 H         1 LIG11       0.0000
     29 H          27.4868   -8.1492   69.4815 H         1 LIG11       0.0000
     30 H          29.1778   -8.3505   68.8924 H         1 LIG11       0.0000
     31 H          27.8859   -9.9622   71.0417 H         1 LIG11       0.0000
     32 H          29.5243  -10.1661   70.4696 H         1 LIG11       0.0000
     33 H          28.4359  -11.5325   70.5078 H         1 LIG11       0.0000
     34 H          24.7124  -10.4135   69.2237 H         1 LIG11       0.0000
     35 H          25.6493   -8.9436   69.3439 H         1 LIG11       0.0000
     36 H          25.8649  -10.2158   70.5220 H         1 LIG11       0.0000
     37 H          28.5709  -10.5981   66.8687 H         1 LIG11       0.0000
     38 H          28.7852  -12.7075   68.9571 H         1 LIG11       0.0000
     39 H          28.7689  -14.7983   68.5826 H         1 LIG11       0.0000
     40 H          29.7193  -15.3273   67.2151 H         1 LIG11       0.0000
     41 H          27.9793  -15.2342   67.0861 H         1 LIG11       0.0000
     42 H          30.3869   -9.4789   67.8234 H         1 LIG11       0.0000
     43 H          32.2086  -10.3697   66.6598 H         1 LIG11       0.0000
     44 H          30.9128  -10.9226   65.8233 H         1 LIG11       0.0000
     45 H          31.0824  -13.1017   66.7407 H         1 LIG11       0.0000
     46 H          32.9658  -12.4221   68.8460 H         1 LIG11       0.0000
     47 H          31.4811  -13.2839   68.9803 H         1 LIG11       0.0000
     48 H          30.5717  -11.3191   69.8775 H         1 LIG11       0.0000
     49 H          33.0669   -9.8716   69.1389 H         1 LIG11       0.0000
     50 H          31.3091   -9.9677   71.5022 H         1 LIG11       0.0000
     51 H          33.9337   -8.5901   70.9078 H         1 LIG11       0.0000
     52 H          33.5290   -9.2517   72.4736 H         1 LIG11       0.0000
     53 H          32.6619   -7.8639   71.8608 H         1 LIG11       0.0000
@<TRIPOS>BOND
     1    1    2 1
     2    2    3 1
     3    3    4 1
     4    4    5 1
     5    4    6 1
     6    6    7 1
     7    8    9 1
     8    9   10 am
     9   10   11 1
    10   10   12 2
    11   13   14 1
    12   14   15 1
    13   16   17 ar
    14   16   18 ar
    15   15   19 1
    16   19   20 1
    17   13   20 1
    18   21   22 2
    19   22   23 1
    20   20   21 1
    21   13    8 1
    22    8    4 1
    23   15   16 1
    24    1   24 1
    25    1   25 1
    26    1   26 1
    27    2   27 1
    28    2   28 1
    29    3   29 1
    30    3   30 1
    31    5   31 1
    32    5   32 1
    33    5   33 1
    34    7   34 1
    35    7   35 1
    36    7   36 1
    37    8   37 1
    38    9   38 1
    39   11   39 1
    40   11   40 1
    41   11   41 1
    42   13   42 1
    43   14   43 1
    44   14   44 1
    45   15   45 1
    46   19   46 1
    47   19   47 1
    48   20   48 1
    49   21   49 1
    50   22   50 1
    51   23   51 1
    52   23   52 1
    53   23   53 1
@<TRIPOS>SUBSTRUCTURE
1 LIG11 1
@<TRIPOS>COMMENT
424102 CHEMBL400553
PLANTSproteinTorsions
3
593 91.9060
841 68.0782
2683 54.0326
PLANTSmolcadARTstart hb
PLANTSmolcadARTstart HB
LINES
29.0636 -13.0809 65.8464 29.1737 -14.881 64.7372 0 255 0 5
33.0961 -14.0229 65.9004 33.5524 -13.8652 64.004 0 255 0 5
PLANTSmolcadARTstart HBCH
LINES
32.2086 -10.3697 66.6598 32.877 -8.317 66.861 255 0 0 5
33.0961 -14.0229 65.9004 31.4287 -14.6973 64.634 255 0 0 5
33.0961 -14.0229 65.9004 33.5706 -16.23 65.5806 255 0 0 5
33.0961 -14.0229 65.9004 33.9645 -14.8609 67.3978 255 0 0 5
34.0385 -11.982 66.146 35.9813 -12.8121 66.3855 255 0 0 5
PLANTSmolcadARTstart HB-CHO
LINES
PLANTSmolcadARTend
PLANTSmolcadARTstart HB_WATER
LINES
PLANTSmolcadARTend

PLANTSmolcadARTend

@<TRIPOS>MOLECULE
424102 CHEMBL400553_entry_00001_conf_17
53 53 1
SMALL
NO_CHARGES


@<TRIPOS>ATOM
      1 C          30.9779   -6.6205   63.1333 C.3       1 LIG11       0.0000
      2 C          29.9294   -7.6888   63.3928 C.3       1 LIG11       0.0000
      3 C          29.9609   -8.2653   64.8129 C.3       1 LIG11       0.0000
      4 C          28.9474   -9.4322   65.1270 C.3       1 LIG11       0.0000
      5 C          27.5306   -8.8366   64.9244 C.3       1 LIG11       0.0000
      6 O          29.1778  -10.5449   64.2262 O.3       1 LIG11       0.0000
      7 C          28.2869  -11.6567   64.3096 C.3       1 LIG11       0.0000
      8 C          29.1241   -9.9970   66.6311 C.3       1 LIG11       0.0000
      9 N          28.4304   -9.0909   67.6001 N.am      1 LIG11       0.0000
     10 C          27.2615   -9.3851   68.2717 C.2       1 LIG11       0.0000
     11 C          26.7519   -8.2965   69.1903 C.3       1 LIG11       0.0000
     12 O          26.6408  -10.4332   68.1181 O.2       1 LIG11       0.0000
     13 C          30.6207  -10.1197   67.1390 C.3       1 LIG11       0.0000
     14 N          31.6392  -10.7728   66.2666 N.4       1 LIG11       0.0000
     15 CA         31.5088  -12.2341   66.5326 C.3       1 LIG11       0.0000
     16 C          32.8155  -12.9539   66.1533 C.2       1 LIG11       0.0000
     17 O          32.6450  -14.3060   66.1165 O.co2     1 LIG11       0.0000
     18 OXT        33.8800  -12.4197   65.9427 O.co2     1 LIG11       0.0000
     19 C          31.1651  -12.3526   68.0047 C.3       1 LIG11       0.0000
     20 C          30.7622  -10.9410   68.4564 C.3       1 LIG11       0.0000
     21 C          31.7540  -10.3562   69.4430 C.2       1 LIG11       0.0000
     22 C          32.8765  -10.9883   69.8235 C.2       1 LIG11       0.0000
     23 C          33.8831  -10.4048   70.7597 C.3       1 LIG11       0.0000
     24 H          30.8897   -6.2716   62.1256 H         1 LIG11       0.0000
     25 H          31.9532   -7.0341   63.2834 H         1 LIG11       0.0000
     26 H          30.8292   -5.8034   63.8080 H         1 LIG11       0.0000
     27 H          30.0877   -8.4899   62.7014 H         1 LIG11       0.0000
     28 H          28.9751   -7.2203   63.2713 H         1 LIG11       0.0000
     29 H          29.7543   -7.4649   65.4922 H         1 LIG11       0.0000
     30 H          30.9324   -8.7012   64.9175 H         1 LIG11       0.0000
     31 H          27.4376   -8.4699   63.9235 H         1 LIG11       0.0000
     32 H          27.3797   -8.0327   65.6143 H         1 LIG11       0.0000
     33 H          26.7967   -9.5961   65.0957 H         1 LIG11       0.0000
     34 H          28.5734  -12.3978   63.5930 H         1 LIG11       0.0000
     35 H          27.2887  -11.3300   64.1052 H         1 LIG11       0.0000
     36 H          28.3307  -12.0759   65.2931 H         1 LIG11       0.0000
     37 H          28.7073  -10.9816   66.5894 H         1 LIG11       0.0000
     38 H          28.8419   -8.2132   67.7721 H         1 LIG11       0.0000
     39 H          27.4357   -7.4735   69.1818 H         1 LIG11       0.0000
     40 H          26.6678   -8.6801   70.1857 H         1 LIG11       0.0000
     41 H          25.7917   -7.9659   68.8533 H         1 LIG11       0.0000
     42 H          30.8222   -9.0712   67.2100 H         1 LIG11       0.0000
     43 H          32.5758  -10.4484   66.5069 H         1 LIG11       0.0000
     44 H          31.4931  -10.5518   65.2815 H         1 LIG11       0.0000
     45 H          30.7458  -12.7011   65.9456 H         1 LIG11       0.0000
     46 H          32.0145  -12.6929   68.5593 H         1 LIG11       0.0000
     47 H          30.3776  -13.0581   68.1693 H         1 LIG11       0.0000
     48 H          29.8413  -10.9338   69.0012 H         1 LIG11       0.0000
     49 H          31.5567   -9.4252   69.8424 H         1 LIG11       0.0000
     50 H          33.0536  -11.9326   69.4468 H         1 LIG11       0.0000
     51 H          33.5646   -9.4295   71.0633 H         1 LIG11       0.0000
     52 H          34.8298  -10.3332   70.2661 H         1 LIG11       0.0000
     53 H          33.9763  -11.0336   71.6205 H         1 LIG11       0.0000
@<TRIPOS>BOND
     1    1    2 1
     2    2    3 1
     3    3    4 1
     4    4    5 1
     5    4    6 1
     6    6    7 1
     7    8    9 1
     8    9   10 am
     9   10   11 1
    10   10   12 2
    11   13   14 1
    12   14   15 1
    13   16   17 ar
    14   16   18 ar
    15   15   19 1
    16   19   20 1
    17   13   20 1
    18   21   22 2
    19   22   23 1
    20   20   21 1
    21   13    8 1
    22    8    4 1
    23   15   16 1
    24    1   24 1
    25    1   25 1
    26    1   26 1
    27    2   27 1
    28    2   28 1
    29    3   29 1
    30    3   30 1
    31    5   31 1
    32    5   32 1
    33    5   33 1
    34    7   34 1
    35    7   35 1
    36    7   36 1
    37    8   37 1
    38    9   38 1
    39   11   39 1
    40   11   40 1
    41   11   41 1
    42   13   42 1
    43   14   43 1
    44   14   44 1
    45   15   45 1
    46   19   46 1
    47   19   47 1
    48   20   48 1
    49   21   49 1
    50   22   50 1
    51   23   51 1
    52   23   52 1
    53   23   53 1
@<TRIPOS>SUBSTRUCTURE
1 LIG11 1
@<TRIPOS>COMMENT
424102 CHEMBL400553
PLANTSproteinTorsions
3
593 211.2384
841 188.9412
2683 131.4339
PLANTSmolcadARTstart hb
PLANTSmolcadARTstart HB
LINES
33.88 -12.4197 65.9427 34.0286 -12.8222 63.9516 0 255 0 5
PLANTSmolcadARTstart HBCH
LINES
32.5758 -10.4484 66.5069 32.877 -8.317 66.861 255 0 0 5
32.645 -14.306 66.1165 31.4287 -14.6973 64.634 255 0 0 5
32.645 -14.306 66.1165 33.5706 -16.23 65.5806 255 0 0 5
32.645 -14.306 66.1165 33.9645 -14.8609 67.3978 255 0 0 5
33.88 -12.4197 65.9427 35.9813 -12.8121 66.3855 255 0 0 5
PLANTSmolcadARTstart HB-CHO
LINES
PLANTSmolcadARTend
PLANTSmolcadARTstart HB_WATER
LINES
PLANTSmolcadARTend

PLANTSmolcadARTend

@<TRIPOS>MOLECULE
424102 CHEMBL400553_entry_00001_conf_18
53 53 1
SMALL
NO_CHARGES


@<TRIPOS>ATOM
      1 C          25.7776   -7.5310   63.3906 C.3       1 LIG11       0.0000
      2 C          26.0986   -8.2872   64.6685 C.3       1 LIG11       0.0000
      3 C          27.5923   -8.5633   64.8745 C.3       1 LIG11       0.0000
      4 C          27.9866   -9.4274   66.1336 C.3       1 LIG11       0.0000
      5 C          27.3886   -8.6946   67.3617 C.3       1 LIG11       0.0000
      6 O          27.4396  -10.7644   66.0083 O.3       1 LIG11       0.0000
      7 C          27.6274  -11.4404   64.7655 C.3       1 LIG11       0.0000
      8 C          29.5885   -9.5838   66.2811 C.3       1 LIG11       0.0000
      9 N          30.1943   -9.8984   64.9487 N.am      1 LIG11       0.0000
     10 C          30.6427   -8.9662   64.0355 C.2       1 LIG11       0.0000
     11 C          31.2049   -9.5365   62.7520 C.3       1 LIG11       0.0000
     12 O          30.5627   -7.7541   64.2144 O.2       1 LIG11       0.0000
     13 C          30.0713  -10.7297   67.2643 C.3       1 LIG11       0.0000
     14 N          31.5111  -10.8092   67.6457 N.4       1 LIG11       0.0000
     15 CA         32.1686  -11.5769   66.5495 C.3       1 LIG11       0.0000
     16 C          33.4792  -12.2014   67.0609 C.2       1 LIG11       0.0000
     17 O          33.9533  -13.1405   66.1937 O.co2     1 LIG11       0.0000
     18 OXT        34.0246  -11.9390   68.1081 O.co2     1 LIG11       0.0000
     19 C          31.1488  -12.6063   66.1027 C.3       1 LIG11       0.0000
     20 C          29.8116  -12.1659   66.7165 C.3       1 LIG11       0.0000
     21 C          29.3184  -13.1446   67.7643 C.2       1 LIG11       0.0000
     22 C          29.9034  -14.3307   67.9997 C.2       1 LIG11       0.0000
     23 C          29.4549  -15.2839   69.0583 C.3       1 LIG11       0.0000
     24 H          24.7207   -7.3792   63.3218 H         1 LIG11       0.0000
     25 H          26.1121   -8.0980   62.5470 H         1 LIG11       0.0000
     26 H          26.2740   -6.5832   63.4028 H         1 LIG11       0.0000
     27 H          25.5841   -9.2251   64.6421 H         1 LIG11       0.0000
     28 H          25.7847   -7.6662   65.4814 H         1 LIG11       0.0000
     29 H          28.0874   -7.6188   64.9617 H         1 LIG11       0.0000
     30 H          27.8892   -9.1475   64.0287 H         1 LIG11       0.0000
     31 H          26.3292   -8.6030   67.2415 H         1 LIG11       0.0000
     32 H          27.8238   -7.7204   67.4426 H         1 LIG11       0.0000
     33 H          27.5999   -9.2544   68.2488 H         1 LIG11       0.0000
     34 H          27.1760  -12.4093   64.8148 H         1 LIG11       0.0000
     35 H          28.6744  -11.5443   64.5706 H         1 LIG11       0.0000
     36 H          27.1727  -10.8746   63.9795 H         1 LIG11       0.0000
     37 H          29.9049   -8.6454   66.6863 H         1 LIG11       0.0000
     38 H          30.2796  -10.8482   64.7040 H         1 LIG11       0.0000
     39 H          31.1862  -10.6053   62.7984 H         1 LIG11       0.0000
     40 H          32.2135   -9.2025   62.6250 H         1 LIG11       0.0000
     41 H          30.6126   -9.2050   61.9249 H         1 LIG11       0.0000
     42 H          29.4875  -10.4322   68.1103 H         1 LIG11       0.0000
     43 H          31.6182  -11.2953   68.5360 H         1 LIG11       0.0000
     44 H          31.9247   -9.8840   67.7621 H         1 LIG11       0.0000
     45 H          32.4502  -10.9643   65.7187 H         1 LIG11       0.0000
     46 H          31.4199  -13.5782   66.4588 H         1 LIG11       0.0000
     47 H          31.0913  -12.6658   65.0358 H         1 LIG11       0.0000
     48 H          29.0174  -12.1537   65.9995 H         1 LIG11       0.0000
     49 H          28.4913  -12.8865   68.3251 H         1 LIG11       0.0000
     50 H          30.7101  -14.5990   67.4147 H         1 LIG11       0.0000
     51 H          28.6156  -14.8709   69.5778 H         1 LIG11       0.0000
     52 H          30.2547  -15.4518   69.7491 H         1 LIG11       0.0000
     53 H          29.1731  -16.2120   68.6064 H         1 LIG11       0.0000
@<TRIPOS>BOND
     1    1    2 1
     2    2    3 1
     3    3    4 1
     4    4    5 1
     5    4    6 1
     6    6    7 1
     7    8    9 1
     8    9   10 am
     9   10   11 1
    10   10   12 2
    11   13   14 1
    12   14   15 1
    13   16   17 ar
    14   16   18 ar
    15   15   19 1
    16   19   20 1
    17   13   20 1
    18   21   22 2
    19   22   23 1
    20   20   21 1
    21   13    8 1
    22    8    4 1
    23   15   16 1
    24    1   24 1
    25    1   25 1
    26    1   26 1
    27    2   27 1
    28    2   28 1
    29    3   29 1
    30    3   30 1
    31    5   31 1
    32    5   32 1
    33    5   33 1
    34    7   34 1
    35    7   35 1
    36    7   36 1
    37    8   37 1
    38    9   38 1
    39   11   39 1
    40   11   40 1
    41   11   41 1
    42   13   42 1
    43   14   43 1
    44   14   44 1
    45   15   45 1
    46   19   46 1
    47   19   47 1
    48   20   48 1
    49   21   49 1
    50   22   50 1
    51   23   51 1
    52   23   52 1
    53   23   53 1
@<TRIPOS>SUBSTRUCTURE
1 LIG11 1
@<TRIPOS>COMMENT
424102 CHEMBL400553
PLANTSproteinTorsions
3
593 255.9686
841 236.2390
2683 96.2704
PLANTSmolcadARTstart hb
PLANTSmolcadARTstart HB
LINES
33.9533 -13.1405 66.1937 33.8704 -13.3084 64.1662 0 255 0 5
PLANTSmolcadARTstart HBCH
LINES
31.9247 -9.88402 67.7621 32.877 -8.317 66.861 255 0 0 5
33.9533 -13.1405 66.1937 35.9813 -12.8121 66.3855 255 0 0 5
33.9533 -13.1405 66.1937 33.9645 -14.8609 67.3978 255 0 0 5
PLANTSmolcadARTstart HB-CHO
LINES
PLANTSmolcadARTend
PLANTSmolcadARTstart HB_WATER
LINES
PLANTSmolcadARTend

PLANTSmolcadARTend

@<TRIPOS>MOLECULE
424102 CHEMBL400553_entry_00001_conf_19
53 53 1
SMALL
NO_CHARGES


@<TRIPOS>ATOM
      1 C          26.9510   -7.3447   66.7343 C.3       1 LIG11       0.0000
      2 C          27.8924   -8.2096   65.9135 C.3       1 LIG11       0.0000
      3 C          28.5396   -7.4818   64.7298 C.3       1 LIG11       0.0000
      4 C          29.4561   -8.3464   63.7811 C.3       1 LIG11       0.0000
      5 C          28.5456   -9.4593   63.2019 C.3       1 LIG11       0.0000
      6 O          29.9990   -7.5155   62.7240 O.3       1 LIG11       0.0000
      7 C          30.8706   -6.4510   63.1032 C.3       1 LIG11       0.0000
      8 C          30.7122   -8.9851   64.5727 C.3       1 LIG11       0.0000
      9 N          31.7009   -9.5406   63.5953 N.am      1 LIG11       0.0000
     10 C          32.8990   -8.9501   63.2490 C.2       1 LIG11       0.0000
     11 C          33.7200   -9.7044   62.2264 C.3       1 LIG11       0.0000
     12 O          33.2723   -7.8692   63.6959 O.2       1 LIG11       0.0000
     13 C          30.3589  -10.1721   65.5622 C.3       1 LIG11       0.0000
     14 N          31.3824  -10.6381   66.5422 N.4       1 LIG11       0.0000
     15 CA         32.2290  -11.6127   65.7961 C.3       1 LIG11       0.0000
     16 C          32.9346  -12.5578   66.7851 C.2       1 LIG11       0.0000
     17 O          33.9289  -13.2632   66.1746 O.co2     1 LIG11       0.0000
     18 OXT        32.6455  -12.7036   67.9505 O.co2     1 LIG11       0.0000
     19 C          31.2877  -12.3309   64.8488 C.3       1 LIG11       0.0000
     20 C          29.9959  -11.5004   64.8314 C.3       1 LIG11       0.0000
     21 C          28.8324  -12.2474   65.4538 C.2       1 LIG11       0.0000
     22 C          28.2291  -11.8594   66.5895 C.2       1 LIG11       0.0000
     23 C          27.0546  -12.5605   67.1889 C.3       1 LIG11       0.0000
     24 H          26.5432   -7.9235   67.5365 H         1 LIG11       0.0000
     25 H          26.1571   -6.9903   66.1106 H         1 LIG11       0.0000
     26 H          27.4899   -6.5111   67.1340 H         1 LIG11       0.0000
     27 H          27.3381   -9.0422   65.5335 H         1 LIG11       0.0000
     28 H          28.6874   -8.5051   66.5658 H         1 LIG11       0.0000
     29 H          29.1395   -6.6890   65.1255 H         1 LIG11       0.0000
     30 H          27.7234   -7.1617   64.1165 H         1 LIG11       0.0000
     31 H          27.7228   -9.0130   62.6834 H         1 LIG11       0.0000
     32 H          28.1761  -10.0690   63.9997 H         1 LIG11       0.0000
     33 H          29.1096  -10.0639   62.5227 H         1 LIG11       0.0000
     34 H          31.1931   -5.9255   62.2288 H         1 LIG11       0.0000
     35 H          31.7219   -6.8515   63.6129 H         1 LIG11       0.0000
     36 H          30.3503   -5.7780   63.7522 H         1 LIG11       0.0000
     37 H          31.0933   -8.1720   65.1544 H         1 LIG11       0.0000
     38 H          31.4780  -10.3973   63.1645 H         1 LIG11       0.0000
     39 H          33.2212  -10.6158   61.9705 H         1 LIG11       0.0000
     40 H          34.6828   -9.9277   62.6364 H         1 LIG11       0.0000
     41 H          33.8367   -9.1033   61.3490 H         1 LIG11       0.0000
     42 H          29.5601   -9.6809   66.0775 H         1 LIG11       0.0000
     43 H          30.9339  -11.0912   67.3384 H         1 LIG11       0.0000
     44 H          31.9326   -9.8637   66.9137 H         1 LIG11       0.0000
     45 H          33.0142  -11.1459   65.2388 H         1 LIG11       0.0000
     46 H          31.0889  -13.3215   65.2013 H         1 LIG11       0.0000
     47 H          31.7094  -12.4230   63.8698 H         1 LIG11       0.0000
     48 H          29.6538  -11.2981   63.8379 H         1 LIG11       0.0000
     49 H          28.4865  -13.0970   64.9810 H         1 LIG11       0.0000
     50 H          28.5989  -11.0281   67.0764 H         1 LIG11       0.0000
     51 H          26.7876  -13.3964   66.5767 H         1 LIG11       0.0000
     52 H          26.2278  -11.8838   67.2490 H         1 LIG11       0.0000
     53 H          27.3068  -12.9035   68.1706 H         1 LIG11       0.0000
@<TRIPOS>BOND
     1    1    2 1
     2    2    3 1
     3    3    4 1
     4    4    5 1
     5    4    6 1
     6    6    7 1
     7    8    9 1
     8    9   10 am
     9   10   11 1
    10   10   12 2
    11   13   14 1
    12   14   15 1
    13   16   17 ar
    14   16   18 ar
    15   15   19 1
    16   19   20 1
    17   13   20 1
    18   21   22 2
    19   22   23 1
    20   20   21 1
    21   13    8 1
    22    8    4 1
    23   15   16 1
    24    1   24 1
    25    1   25 1
    26    1   26 1
    27    2   27 1
    28    2   28 1
    29    3   29 1
    30    3   30 1
    31    5   31 1
    32    5   32 1
    33    5   33 1
    34    7   34 1
    35    7   35 1
    36    7   36 1
    37    8   37 1
    38    9   38 1
    39   11   39 1
    40   11   40 1
    41   11   41 1
    42   13   42 1
    43   14   43 1
    44   14   44 1
    45   15   45 1
    46   19   46 1
    47   19   47 1
    48   20   48 1
    49   21   49 1
    50   22   50 1
    51   23   51 1
    52   23   52 1
    53   23   53 1
@<TRIPOS>SUBSTRUCTURE
1 LIG11 1
@<TRIPOS>COMMENT
424102 CHEMBL400553
PLANTSproteinTorsions
3
593 264.1704
841 211.8043
2683 100.4382
PLANTSmolcadARTstart hb
PLANTSmolcadARTstart HB
LINES
33.9289 -13.2632 66.1746 33.8962 -13.2475 64.1569 0 255 0 5
PLANTSmolcadARTstart HBCH
LINES
31.9326 -9.8637 66.9137 32.877 -8.317 66.861 255 0 0 5
33.9289 -13.2632 66.1746 35.9813 -12.8121 66.3855 255 0 0 5
33.9289 -13.2632 66.1746 33.9645 -14.8609 67.3978 255 0 0 5
PLANTSmolcadARTstart HB-CHO
LINES
PLANTSmolcadARTend
PLANTSmolcadARTstart HB_WATER
LINES
PLANTSmolcadARTend

PLANTSmolcadARTend

@<TRIPOS>MOLECULE
424102 CHEMBL400553_entry_00001_conf_20
53 53 1
SMALL
NO_CHARGES


@<TRIPOS>ATOM
      1 C          26.8189   -7.8583   63.6508 C.3       1 LIG11       0.0000
      2 C          26.9077   -9.2416   64.2726 C.3       1 LIG11       0.0000
      3 C          28.2157   -9.9814   63.9701 C.3       1 LIG11       0.0000
      4 C          28.3691  -11.4282   64.5790 C.3       1 LIG11       0.0000
      5 C          27.0231  -12.1503   64.3146 C.3       1 LIG11       0.0000
      6 O          29.4674  -12.1229   63.9358 O.3       1 LIG11       0.0000
      7 C          30.7795  -11.5904   64.1134 C.3       1 LIG11       0.0000
      8 C          28.6980  -11.3860   66.1609 C.3       1 LIG11       0.0000
      9 N          28.6138  -12.7659   66.7355 N.am      1 LIG11       0.0000
     10 C          29.6241  -13.7053   66.7075 C.2       1 LIG11       0.0000
     11 C          29.2889  -15.0348   67.3468 C.3       1 LIG11       0.0000
     12 O          30.7110  -13.5111   66.1705 O.2       1 LIG11       0.0000
     13 C          27.7259  -10.4873   67.0329 C.3       1 LIG11       0.0000
     14 N          27.9390   -9.0118   67.0814 N.4       1 LIG11       0.0000
     15 CA         28.9662   -8.7954   68.1403 C.3       1 LIG11       0.0000
     16 C          28.8724   -7.3547   68.6740 C.2       1 LIG11       0.0000
     17 O          29.6577   -7.1808   69.7748 O.co2     1 LIG11       0.0000
     18 OXT        28.1756   -6.4772   68.2185 O.co2     1 LIG11       0.0000
     19 C          28.6898   -9.8455   69.1987 C.3       1 LIG11       0.0000
     20 C          27.7339  -10.8560   68.5476 C.3       1 LIG11       0.0000
     21 C          26.3620  -10.8368   69.1931 C.2       1 LIG11       0.0000
     22 C          25.2420  -10.4933   68.5360 C.2       1 LIG11       0.0000
     23 C          23.8796  -10.5130   69.1474 C.3       1 LIG11       0.0000
     24 H          25.8814   -7.4113   63.9078 H         1 LIG11       0.0000
     25 H          26.8954   -7.9400   62.5867 H         1 LIG11       0.0000
     26 H          27.6176   -7.2494   64.0201 H         1 LIG11       0.0000
     27 H          26.0952   -9.8299   63.9004 H         1 LIG11       0.0000
     28 H          26.8683   -9.1060   65.3333 H         1 LIG11       0.0000
     29 H          29.0202   -9.3846   64.3463 H         1 LIG11       0.0000
     30 H          28.2206  -10.1211   62.9093 H         1 LIG11       0.0000
     31 H          26.8272  -12.1658   63.2627 H         1 LIG11       0.0000
     32 H          26.2345  -11.6298   64.8166 H         1 LIG11       0.0000
     33 H          27.0786  -13.1538   64.6819 H         1 LIG11       0.0000
     34 H          31.4855  -12.1987   63.5877 H         1 LIG11       0.0000
     35 H          31.0227  -11.5813   65.1554 H         1 LIG11       0.0000
     36 H          30.8140  -10.5919   63.7304 H         1 LIG11       0.0000
     37 H          29.6776  -10.9585   66.2112 H         1 LIG11       0.0000
     38 H          27.7683  -13.0241   67.1688 H         1 LIG11       0.0000
     39 H          28.3004  -14.9954   67.7545 H         1 LIG11       0.0000
     40 H          29.9894  -15.2412   68.1289 H         1 LIG11       0.0000
     41 H          29.3399  -15.8082   66.6092 H         1 LIG11       0.0000
     42 H          26.8266  -10.7069   66.4963 H         1 LIG11       0.0000
     43 H          27.0711   -8.5336   67.3229 H         1 LIG11       0.0000
     44 H          28.2396   -8.6418   66.1796 H         1 LIG11       0.0000
     45 H          29.9683   -8.9012   67.7807 H         1 LIG11       0.0000
     46 H          28.2317   -9.3985   70.0562 H         1 LIG11       0.0000
     47 H          29.5917  -10.3153   69.5317 H         1 LIG11       0.0000
     48 H          28.0546  -11.8677   68.6836 H         1 LIG11       0.0000
     49 H          26.2849  -11.1010   70.1877 H         1 LIG11       0.0000
     50 H          25.3279  -10.1985   67.5508 H         1 LIG11       0.0000
     51 H          23.9499  -10.8373   70.1647 H         1 LIG11       0.0000
     52 H          23.2531  -11.1866   68.6008 H         1 LIG11       0.0000
     53 H          23.4597   -9.5293   69.1148 H         1 LIG11       0.0000
@<TRIPOS>BOND
     1    1    2 1
     2    2    3 1
     3    3    4 1
     4    4    5 1
     5    4    6 1
     6    6    7 1
     7    8    9 1
     8    9   10 am
     9   10   11 1
    10   10   12 2
    11   13   14 1
    12   14   15 1
    13   16   17 ar
    14   16   18 ar
    15   15   19 1
    16   19   20 1
    17   13   20 1
    18   21   22 2
    19   22   23 1
    20   20   21 1
    21   13    8 1
    22    8    4 1
    23   15   16 1
    24    1   24 1
    25    1   25 1
    26    1   26 1
    27    2   27 1
    28    2   28 1
    29    3   29 1
    30    3   30 1
    31    5   31 1
    32    5   32 1
    33    5   33 1
    34    7   34 1
    35    7   35 1
    36    7   36 1
    37    8   37 1
    38    9   38 1
    39   11   39 1
    40   11   40 1
    41   11   41 1
    42   13   42 1
    43   14   43 1
    44   14   44 1
    45   15   45 1
    46   19   46 1
    47   19   47 1
    48   20   48 1
    49   21   49 1
    50   22   50 1
    51   23   51 1
    52   23   52 1
    53   23   53 1
@<TRIPOS>SUBSTRUCTURE
1 LIG11 1
@<TRIPOS>COMMENT
424102 CHEMBL400553
PLANTSproteinTorsions
3
593 237.5362
841 150.6566
2683 187.0117
PLANTSmolcadARTstart hb
PLANTSmolcadARTstart HB
LINES
30.711 -13.5111 66.1705 31.4287 -14.6973 64.634 0 255 0 5
PLANTSmolcadARTstart HBCH
LINES
29.6577 -7.18076 69.7748 30.6047 -5.58272 69.4291 255 0 0 5
28.1756 -6.47723 68.2185 29.245 -5.8475 66.5261 255 0 0 5
28.1756 -6.47723 68.2185 27.8673 -4.4679 67.7309 255 0 0 5
PLANTSmolcadARTstart HB-CHO
LINES
PLANTSmolcadARTend
PLANTSmolcadARTstart HB_WATER
LINES
PLANTSmolcadARTend

PLANTSmolcadARTend

@<TRIPOS>MOLECULE
424102 CHEMBL400553_entry_00001_conf_21
53 53 1
SMALL
NO_CHARGES


@<TRIPOS>ATOM
      1 C          30.6343   -7.5955   62.8746 C.3       1 LIG11       0.0000
      2 C          29.4031   -7.9475   63.6921 C.3       1 LIG11       0.0000
      3 C          29.6178   -9.0957   64.6847 C.3       1 LIG11       0.0000
      4 C          28.3990   -9.4660   65.6148 C.3       1 LIG11       0.0000
      5 C          28.0489   -8.1751   66.3983 C.3       1 LIG11       0.0000
      6 O          27.2766   -9.9064   64.8094 O.3       1 LIG11       0.0000
      7 C          27.4525  -11.0814   64.0187 C.3       1 LIG11       0.0000
      8 C          28.7572  -10.6739   66.6273 C.3       1 LIG11       0.0000
      9 N          27.7835  -10.6908   67.7644 N.am      1 LIG11       0.0000
     10 C          26.7913  -11.6313   67.9518 C.2       1 LIG11       0.0000
     11 C          25.9255  -11.4230   69.1748 C.3       1 LIG11       0.0000
     12 O          26.5822  -12.5558   67.1715 O.2       1 LIG11       0.0000
     13 C          30.1982  -10.6047   67.2843 C.3       1 LIG11       0.0000
     14 N          31.3974  -10.9175   66.4544 N.4       1 LIG11       0.0000
     15 CA         31.5318  -12.4019   66.4978 C.3       1 LIG11       0.0000
     16 C          32.9821  -12.8059   66.1771 C.2       1 LIG11       0.0000
     17 O          33.0639  -14.1181   65.8166 O.co2     1 LIG11       0.0000
     18 OXT        33.9499  -12.0849   66.2580 O.co2     1 LIG11       0.0000
     19 C          31.0893  -12.8121   67.8889 C.3       1 LIG11       0.0000
     20 C          30.3804  -11.5855   68.4822 C.3       1 LIG11       0.0000
     21 C          31.1480  -10.9959   69.6494 C.2       1 LIG11       0.0000
     22 C          31.5336   -9.7104   69.7051 C.2       1 LIG11       0.0000
     23 C          32.2507   -9.1067   70.8677 C.3       1 LIG11       0.0000
     24 H          30.4026   -6.7896   62.2100 H         1 LIG11       0.0000
     25 H          30.9414   -8.4489   62.3069 H         1 LIG11       0.0000
     26 H          31.4259   -7.3001   63.5311 H         1 LIG11       0.0000
     27 H          28.6211   -8.2280   63.0179 H         1 LIG11       0.0000
     28 H          29.1592   -7.0811   64.2708 H         1 LIG11       0.0000
     29 H          30.4385   -8.8284   65.3171 H         1 LIG11       0.0000
     30 H          29.7831   -9.9626   64.0799 H         1 LIG11       0.0000
     31 H          27.8159   -7.3912   65.7083 H         1 LIG11       0.0000
     32 H          28.8854   -7.8845   66.9990 H         1 LIG11       0.0000
     33 H          27.2039   -8.3585   67.0285 H         1 LIG11       0.0000
     34 H          26.5509  -11.2875   63.4806 H         1 LIG11       0.0000
     35 H          27.6844  -11.9089   64.6562 H         1 LIG11       0.0000
     36 H          28.2540  -10.9288   63.3265 H         1 LIG11       0.0000
     37 H          28.7156  -11.5489   66.0128 H         1 LIG11       0.0000
     38 H          27.8572   -9.9721   68.4332 H         1 LIG11       0.0000
     39 H          26.2740  -10.5691   69.7173 H         1 LIG11       0.0000
     40 H          25.9782  -12.2892   69.8008 H         1 LIG11       0.0000
     41 H          24.9120  -11.2635   68.8714 H         1 LIG11       0.0000
     42 H          30.1841   -9.5618   67.5234 H         1 LIG11       0.0000
     43 H          32.2278  -10.4724   66.8450 H         1 LIG11       0.0000
     44 H          31.2986  -10.5731   65.4994 H         1 LIG11       0.0000
     45 H          30.9294  -12.8993   65.7666 H         1 LIG11       0.0000
     46 H          31.9364  -13.0777   68.4860 H         1 LIG11       0.0000
     47 H          30.4431  -13.6645   67.8608 H         1 LIG11       0.0000
     48 H          29.4314  -11.8303   68.9116 H         1 LIG11       0.0000
     49 H          31.3862  -11.6135   70.4412 H         1 LIG11       0.0000
     50 H          31.3220   -9.1044   68.8971 H         1 LIG11       0.0000
     51 H          32.3981   -9.8515   71.6217 H         1 LIG11       0.0000
     52 H          31.6678   -8.3039   71.2685 H         1 LIG11       0.0000
     53 H          33.2001   -8.7322   70.5459 H         1 LIG11       0.0000
@<TRIPOS>BOND
     1    1    2 1
     2    2    3 1
     3    3    4 1
     4    4    5 1
     5    4    6 1
     6    6    7 1
     7    8    9 1
     8    9   10 am
     9   10   11 1
    10   10   12 2
    11   13   14 1
    12   14   15 1
    13   16   17 ar
    14   16   18 ar
    15   15   19 1
    16   19   20 1
    17   13   20 1
    18   21   22 2
    19   22   23 1
    20   20   21 1
    21   13    8 1
    22    8    4 1
    23   15   16 1
    24    1   24 1
    25    1   25 1
    26    1   26 1
    27    2   27 1
    28    2   28 1
    29    3   29 1
    30    3   30 1
    31    5   31 1
    32    5   32 1
    33    5   33 1
    34    7   34 1
    35    7   35 1
    36    7   36 1
    37    8   37 1
    38    9   38 1
    39   11   39 1
    40   11   40 1
    41   11   41 1
    42   13   42 1
    43   14   43 1
    44   14   44 1
    45   15   45 1
    46   19   46 1
    47   19   47 1
    48   20   48 1
    49   21   49 1
    50   22   50 1
    51   23   51 1
    52   23   52 1
    53   23   53 1
@<TRIPOS>SUBSTRUCTURE
1 LIG11 1
@<TRIPOS>COMMENT
424102 CHEMBL400553
PLANTSproteinTorsions
3
593 297.9291
841 244.4120
2683 48.0397
PLANTSmolcadARTstart hb
PLANTSmolcadARTstart HB
LINES
33.0639 -14.1181 65.8166 33.5046 -13.9251 63.9463 0 255 0 5
PLANTSmolcadARTstart HBCH
LINES
32.2278 -10.4724 66.845 32.877 -8.317 66.861 255 0 0 5
33.0639 -14.1181 65.8166 31.4287 -14.6973 64.634 255 0 0 5
33.0639 -14.1181 65.8166 33.5706 -16.23 65.5806 255 0 0 5
33.0639 -14.1181 65.8166 33.9645 -14.8609 67.3978 255 0 0 5
33.9499 -12.0849 66.258 35.9813 -12.8121 66.3855 255 0 0 5
PLANTSmolcadARTstart HB-CHO
LINES
PLANTSmolcadARTend
PLANTSmolcadARTstart HB_WATER
LINES
PLANTSmolcadARTend

PLANTSmolcadARTend

@<TRIPOS>MOLECULE
424102 CHEMBL400553_entry_00001_conf_22
53 53 1
SMALL
NO_CHARGES


@<TRIPOS>ATOM
      1 C          31.0316  -15.1543   68.6657 C.3       1 LIG11       0.0000
      2 C          31.6797  -13.7844   68.7709 C.3       1 LIG11       0.0000
      3 C          30.7937  -12.6331   68.2816 C.3       1 LIG11       0.0000
      4 C          30.2925  -12.7096   66.7881 C.3       1 LIG11       0.0000
      5 C          31.5656  -12.6632   65.9050 C.3       1 LIG11       0.0000
      6 O          29.5558  -13.9401   66.5748 O.3       1 LIG11       0.0000
      7 C          28.4354  -14.1938   67.4216 C.3       1 LIG11       0.0000
      8 C          29.2946  -11.4917   66.4229 C.3       1 LIG11       0.0000
      9 N          28.6511  -11.7415   65.0944 N.am      1 LIG11       0.0000
     10 C          27.2970  -11.8978   64.8801 C.2       1 LIG11       0.0000
     11 C          26.8947  -12.1531   63.4442 C.3       1 LIG11       0.0000
     12 O          26.4644  -11.8760   65.7821 O.2       1 LIG11       0.0000
     13 C          29.9751  -10.0638   66.3194 C.3       1 LIG11       0.0000
     14 N          30.3027   -9.3162   67.5679 N.4       1 LIG11       0.0000
     15 CA         29.0466   -8.6066   67.9447 C.3       1 LIG11       0.0000
     16 C          29.3756   -7.4018   68.8444 C.2       1 LIG11       0.0000
     17 O          28.6654   -6.2980   68.4758 O.co2     1 LIG11       0.0000
     18 OXT        30.1803   -7.3942   69.7475 O.co2     1 LIG11       0.0000
     19 C          28.3897   -8.2148   66.6354 C.3       1 LIG11       0.0000
     20 C          29.1122   -9.0210   65.5459 C.3       1 LIG11       0.0000
     21 C          29.9114   -8.1292   64.6159 C.2       1 LIG11       0.0000
     22 C          29.4595   -7.7166   63.4201 C.2       1 LIG11       0.0000
     23 C          30.2176   -6.8026   62.5145 C.3       1 LIG11       0.0000
     24 H          31.7109  -15.8988   69.0250 H         1 LIG11       0.0000
     25 H          30.7891  -15.3566   67.6434 H         1 LIG11       0.0000
     26 H          30.1384  -15.1725   69.2545 H         1 LIG11       0.0000
     27 H          32.5756  -13.7908   68.1860 H         1 LIG11       0.0000
     28 H          31.8657  -13.6102   69.8102 H         1 LIG11       0.0000
     29 H          31.3511  -11.7263   68.3904 H         1 LIG11       0.0000
     30 H          29.9074  -12.6876   68.8785 H         1 LIG11       0.0000
     31 H          32.2096  -13.4773   66.1645 H         1 LIG11       0.0000
     32 H          32.0780  -11.7378   66.0663 H         1 LIG11       0.0000
     33 H          31.2880  -12.7423   64.8747 H         1 LIG11       0.0000
     34 H          27.9904  -15.1292   67.1536 H         1 LIG11       0.0000
     35 H          27.7160  -13.4103   67.3055 H         1 LIG11       0.0000
     36 H          28.7598  -14.2320   68.4405 H         1 LIG11       0.0000
     37 H          28.6022  -11.4697   67.2385 H         1 LIG11       0.0000
     38 H          29.2426  -11.7990   64.3095 H         1 LIG11       0.0000
     39 H          27.7641  -12.1306   62.8209 H         1 LIG11       0.0000
     40 H          26.2081  -11.3965   63.1262 H         1 LIG11       0.0000
     41 H          26.4274  -13.1128   63.3700 H         1 LIG11       0.0000
     42 H          30.8770  -10.3820   65.8396 H         1 LIG11       0.0000
     43 H          31.0531   -8.6469   67.3967 H         1 LIG11       0.0000
     44 H          30.6244   -9.9382   68.3095 H         1 LIG11       0.0000
     45 H          28.3767   -9.2143   68.5164 H         1 LIG11       0.0000
     46 H          28.5047   -7.1656   66.4603 H         1 LIG11       0.0000
     47 H          27.3395   -8.4199   66.6453 H         1 LIG11       0.0000
     48 H          28.4316   -9.5165   64.8855 H         1 LIG11       0.0000
     49 H          30.8501   -7.8236   64.9168 H         1 LIG11       0.0000
     50 H          28.5340   -8.0508   63.1089 H         1 LIG11       0.0000
     51 H          31.1508   -6.5434   62.9693 H         1 LIG11       0.0000
     52 H          29.6454   -5.9147   62.3433 H         1 LIG11       0.0000
     53 H          30.3998   -7.2948   61.5820 H         1 LIG11       0.0000
@<TRIPOS>BOND
     1    1    2 1
     2    2    3 1
     3    3    4 1
     4    4    5 1
     5    4    6 1
     6    6    7 1
     7    8    9 1
     8    9   10 am
     9   10   11 1
    10   10   12 2
    11   13   14 1
    12   14   15 1
    13   16   17 ar
    14   16   18 ar
    15   15   19 1
    16   19   20 1
    17   13   20 1
    18   21   22 2
    19   22   23 1
    20   20   21 1
    21   13    8 1
    22    8    4 1
    23   15   16 1
    24    1   24 1
    25    1   25 1
    26    1   26 1
    27    2   27 1
    28    2   28 1
    29    3   29 1
    30    3   30 1
    31    5   31 1
    32    5   32 1
    33    5   33 1
    34    7   34 1
    35    7   35 1
    36    7   36 1
    37    8   37 1
    38    9   38 1
    39   11   39 1
    40   11   40 1
    41   11   41 1
    42   13   42 1
    43   14   43 1
    44   14   44 1
    45   15   45 1
    46   19   46 1
    47   19   47 1
    48   20   48 1
    49   21   49 1
    50   22   50 1
    51   23   51 1
    52   23   52 1
    53   23   53 1
@<TRIPOS>SUBSTRUCTURE
1 LIG11 1
@<TRIPOS>COMMENT
424102 CHEMBL400553
PLANTSproteinTorsions
3
593 310.6101
841 254.8518
2683 260.3724
PLANTSmolcadARTstart hb
PLANTSmolcadARTstart HB
LINES
29.5558 -13.9401 66.5748 29.1737 -14.881 64.7372 0 255 0 5
PLANTSmolcadARTstart HBCH
LINES
31.0531 -8.64694 67.3967 32.877 -8.317 66.861 255 0 0 5
28.6654 -6.29803 68.4758 30.1781 -4.84431 68.5673 255 0 0 5
28.6654 -6.29803 68.4758 29.245 -5.8475 66.5261 255 0 0 5
28.6654 -6.29803 68.4758 27.8673 -4.4679 67.7309 255 0 0 5
30.1803 -7.39423 69.7475 31.3996 -5.73601 69.4746 255 0 0 5
PLANTSmolcadARTstart HB-CHO
LINES
PLANTSmolcadARTend
PLANTSmolcadARTstart HB_WATER
LINES
PLANTSmolcadARTend

PLANTSmolcadARTend

@<TRIPOS>MOLECULE
424102 CHEMBL400553_entry_00001_conf_23
53 53 1
SMALL
NO_CHARGES


@<TRIPOS>ATOM
      1 C          30.6988   -6.4035   63.0561 C.3       1 LIG11       0.0000
      2 C          29.6203   -7.4712   63.1252 C.3       1 LIG11       0.0000
      3 C          29.5932   -8.2494   64.4456 C.3       1 LIG11       0.0000
      4 C          28.5941   -9.4668   64.5307 C.3       1 LIG11       0.0000
      5 C          27.1733   -8.8685   64.3677 C.3       1 LIG11       0.0000
      6 O          28.8818  -10.4190   63.4757 O.3       1 LIG11       0.0000
      7 C          30.2509  -10.6314   63.1338 C.3       1 LIG11       0.0000
      8 C          28.7267  -10.2600   65.9327 C.3       1 LIG11       0.0000
      9 N          27.7452   -9.7130   66.9221 N.am      1 LIG11       0.0000
     10 C          27.8369   -8.4830   67.5407 C.2       1 LIG11       0.0000
     11 C          26.7228   -8.1635   68.5131 C.3       1 LIG11       0.0000
     12 O          28.7696   -7.7052   67.3606 O.2       1 LIG11       0.0000
     13 C          30.1475  -10.1736   66.6301 C.3       1 LIG11       0.0000
     14 N          31.3378  -10.7522   65.9421 N.4       1 LIG11       0.0000
     15 CA         31.3350  -12.2001   66.2982 C.3       1 LIG11       0.0000
     16 C          32.7515  -12.7811   66.1388 C.2       1 LIG11       0.0000
     17 O          32.7210  -14.1391   66.0221 O.co2     1 LIG11       0.0000
     18 OXT        33.7802  -12.1450   66.1464 O.co2     1 LIG11       0.0000
     19 C          30.8153  -12.2703   67.7210 C.3       1 LIG11       0.0000
     20 C          30.2036  -10.8920   68.0125 C.3       1 LIG11       0.0000
     21 C          30.9862  -10.1355   69.0682 C.2       1 LIG11       0.0000
     22 C          30.4115   -9.5317   70.1215 C.2       1 LIG11       0.0000
     23 C          31.1741   -8.8218   71.1914 C.3       1 LIG11       0.0000
     24 H          30.6510   -5.9090   62.1084 H         1 LIG11       0.0000
     25 H          31.6599   -6.8593   63.1724 H         1 LIG11       0.0000
     26 H          30.5452   -5.6902   63.8387 H         1 LIG11       0.0000
     27 H          29.7844   -8.1665   62.3287 H         1 LIG11       0.0000
     28 H          28.6805   -6.9657   63.0458 H         1 LIG11       0.0000
     29 H          29.3323   -7.5611   65.2222 H         1 LIG11       0.0000
     30 H          30.5685   -8.6795   64.5382 H         1 LIG11       0.0000
     31 H          27.1099   -8.3492   63.4343 H         1 LIG11       0.0000
     32 H          26.9795   -8.1865   65.1691 H         1 LIG11       0.0000
     33 H          26.4500   -9.6567   64.3874 H         1 LIG11       0.0000
     34 H          30.3142  -11.3533   62.3466 H         1 LIG11       0.0000
     35 H          30.7810  -10.9910   63.9910 H         1 LIG11       0.0000
     36 H          30.6843   -9.7091   62.8075 H         1 LIG11       0.0000
     37 H          28.5485  -11.2821   65.6707 H         1 LIG11       0.0000
     38 H          26.9712  -10.2769   67.1499 H         1 LIG11       0.0000
     39 H          26.0152   -8.9661   68.5209 H         1 LIG11       0.0000
     40 H          26.2344   -7.2604   68.2117 H         1 LIG11       0.0000
     41 H          27.1307   -8.0380   69.4942 H         1 LIG11       0.0000
     42 H          30.2213   -9.1063   66.6472 H         1 LIG11       0.0000
     43 H          32.1931  -10.3051   66.2719 H         1 LIG11       0.0000
     44 H          31.2994  -10.6095   64.9328 H         1 LIG11       0.0000
     45 H          30.7121  -12.7886   65.6575 H         1 LIG11       0.0000
     46 H          31.6165  -12.4735   68.4005 H         1 LIG11       0.0000
     47 H          30.0954  -13.0531   67.8387 H         1 LIG11       0.0000
     48 H          29.2238  -10.9615   68.4368 H         1 LIG11       0.0000
     49 H          32.0124  -10.0819   68.9727 H         1 LIG11       0.0000
     50 H          29.3826   -9.5600   70.1957 H         1 LIG11       0.0000
     51 H          32.2214   -8.8767   70.9791 H         1 LIG11       0.0000
     52 H          30.9769   -9.2837   72.1363 H         1 LIG11       0.0000
     53 H          30.8704   -7.7963   71.2254 H         1 LIG11       0.0000
@<TRIPOS>BOND
     1    1    2 1
     2    2    3 1
     3    3    4 1
     4    4    5 1
     5    4    6 1
     6    6    7 1
     7    8    9 1
     8    9   10 am
     9   10   11 1
    10   10   12 2
    11   13   14 1
    12   14   15 1
    13   16   17 ar
    14   16   18 ar
    15   15   19 1
    16   19   20 1
    17   13   20 1
    18   21   22 2
    19   22   23 1
    20   20   21 1
    21   13    8 1
    22    8    4 1
    23   15   16 1
    24    1   24 1
    25    1   25 1
    26    1   26 1
    27    2   27 1
    28    2   28 1
    29    3   29 1
    30    3   30 1
    31    5   31 1
    32    5   32 1
    33    5   33 1
    34    7   34 1
    35    7   35 1
    36    7   36 1
    37    8   37 1
    38    9   38 1
    39   11   39 1
    40   11   40 1
    41   11   41 1
    42   13   42 1
    43   14   43 1
    44   14   44 1
    45   15   45 1
    46   19   46 1
    47   19   47 1
    48   20   48 1
    49   21   49 1
    50   22   50 1
    51   23   51 1
    52   23   52 1
    53   23   53 1
@<TRIPOS>SUBSTRUCTURE
1 LIG11 1
@<TRIPOS>COMMENT
424102 CHEMBL400553
PLANTSproteinTorsions
3
593 252.6708
841 138.7181
2683 91.8468
PLANTSmolcadARTstart hb
PLANTSmolcadARTstart HB
LINES
28.7696 -7.70516 67.3606 29.245 -5.8475 66.5261 0 255 0 5
PLANTSmolcadARTstart HBCH
LINES
32.1931 -10.3051 66.2719 32.877 -8.317 66.861 255 0 0 5
32.721 -14.1391 66.0221 31.4287 -14.6973 64.634 255 0 0 5
32.721 -14.1391 66.0221 33.5706 -16.23 65.5806 255 0 0 5
32.721 -14.1391 66.0221 33.9645 -14.8609 67.3978 255 0 0 5
33.7802 -12.145 66.1464 35.9813 -12.8121 66.3855 255 0 0 5
PLANTSmolcadARTstart HB-CHO
LINES
PLANTSmolcadARTend
PLANTSmolcadARTstart HB_WATER
LINES
PLANTSmolcadARTend

PLANTSmolcadARTend

@<TRIPOS>MOLECULE
424102 CHEMBL400553_entry_00001_conf_24
53 53 1
SMALL
NO_CHARGES


@<TRIPOS>ATOM
      1 C          32.5565  -14.7052   70.9044 C.3       1 LIG11       0.0000
      2 C          32.4433  -13.5920   71.9321 C.3       1 LIG11       0.0000
      3 C          31.8832  -12.2788   71.3737 C.3       1 LIG11       0.0000
      4 C          32.6555  -11.6395   70.1562 C.3       1 LIG11       0.0000
      5 C          34.1262  -11.4769   70.6181 C.3       1 LIG11       0.0000
      6 O          32.5664  -12.5103   69.0002 O.3       1 LIG11       0.0000
      7 C          33.2336  -12.0956   67.8087 C.3       1 LIG11       0.0000
      8 C          32.0275  -10.2142   69.7240 C.3       1 LIG11       0.0000
      9 N          31.6445   -9.4356   70.9440 N.am      1 LIG11       0.0000
     10 C          31.7909   -8.0724   71.0994 C.2       1 LIG11       0.0000
     11 C          31.3390   -7.5214   72.4339 C.3       1 LIG11       0.0000
     12 O          32.2884   -7.3455   70.2441 O.2       1 LIG11       0.0000
     13 C          30.7241  -10.2909   68.8251 C.3       1 LIG11       0.0000
     14 N          30.2358   -9.0612   68.1364 N.4       1 LIG11       0.0000
     15 CA         29.4051   -8.3457   69.1470 C.3       1 LIG11       0.0000
     16 C          28.4177   -7.4008   68.4388 C.2       1 LIG11       0.0000
     17 O          27.4710   -8.0983   67.7489 O.co2     1 LIG11       0.0000
     18 OXT        28.4685   -6.1924   68.4463 O.co2     1 LIG11       0.0000
     19 C          28.7209   -9.4304   69.9560 C.3       1 LIG11       0.0000
     20 C          29.4541  -10.7355   69.6123 C.3       1 LIG11       0.0000
     21 C          28.5663  -11.7023   68.8533 C.2       1 LIG11       0.0000
     22 C          27.2907  -11.4338   68.5291 C.2       1 LIG11       0.0000
     23 C          26.4198  -12.3584   67.7437 C.3       1 LIG11       0.0000
     24 H          32.9532  -15.5825   71.3712 H         1 LIG11       0.0000
     25 H          33.2080  -14.3960   70.1141 H         1 LIG11       0.0000
     26 H          31.5878  -14.9210   70.5044 H         1 LIG11       0.0000
     27 H          33.4186  -13.3999   72.3280 H         1 LIG11       0.0000
     28 H          31.7536  -13.9293   72.6774 H         1 LIG11       0.0000
     29 H          31.8822  -11.5628   72.1689 H         1 LIG11       0.0000
     30 H          30.9143  -12.5260   70.9932 H         1 LIG11       0.0000
     31 H          34.5196  -12.4316   70.8986 H         1 LIG11       0.0000
     32 H          34.1653  -10.8145   71.4575 H         1 LIG11       0.0000
     33 H          34.7089  -11.0723   69.8171 H         1 LIG11       0.0000
     34 H          33.0845  -12.8281   67.0431 H         1 LIG11       0.0000
     35 H          34.2805  -11.9918   68.0039 H         1 LIG11       0.0000
     36 H          32.8360  -11.1562   67.4858 H         1 LIG11       0.0000
     37 H          32.8014   -9.7541   69.1458 H         1 LIG11       0.0000
     38 H          31.2564   -9.9373   71.6969 H         1 LIG11       0.0000
     39 H          30.9373   -8.3143   73.0296 H         1 LIG11       0.0000
     40 H          30.5863   -6.7773   72.2762 H         1 LIG11       0.0000
     41 H          32.1735   -7.0828   72.9398 H         1 LIG11       0.0000
     42 H          31.1020  -10.9852   68.1039 H         1 LIG11       0.0000
     43 H          29.6734   -9.3077   67.3220 H         1 LIG11       0.0000
     44 H          31.0060   -8.4832   67.8001 H         1 LIG11       0.0000
     45 H          29.9811   -7.7205   69.7968 H         1 LIG11       0.0000
     46 H          27.6881   -9.5012   69.6857 H         1 LIG11       0.0000
     47 H          28.7591   -9.2222   71.0049 H         1 LIG11       0.0000
     48 H          29.7310  -11.2902   70.4845 H         1 LIG11       0.0000
     49 H          28.9621  -12.6129   68.5715 H         1 LIG11       0.0000
     50 H          26.8890  -10.5359   68.8410 H         1 LIG11       0.0000
     51 H          26.9707  -13.2409   67.4935 H         1 LIG11       0.0000
     52 H          26.1001  -11.8710   66.8463 H         1 LIG11       0.0000
     53 H          25.5645  -12.6256   68.3285 H         1 LIG11       0.0000
@<TRIPOS>BOND
     1    1    2 1
     2    2    3 1
     3    3    4 1
     4    4    5 1
     5    4    6 1
     6    6    7 1
     7    8    9 1
     8    9   10 am
     9   10   11 1
    10   10   12 2
    11   13   14 1
    12   14   15 1
    13   16   17 ar
    14   16   18 ar
    15   15   19 1
    16   19   20 1
    17   13   20 1
    18   21   22 2
    19   22   23 1
    20   20   21 1
    21   13    8 1
    22    8    4 1
    23   15   16 1
    24    1   24 1
    25    1   25 1
    26    1   26 1
    27    2   27 1
    28    2   28 1
    29    3   29 1
    30    3   30 1
    31    5   31 1
    32    5   32 1
    33    5   33 1
    34    7   34 1
    35    7   35 1
    36    7   36 1
    37    8   37 1
    38    9   38 1
    39   11   39 1
    40   11   40 1
    41   11   41 1
    42   13   42 1
    43   14   43 1
    44   14   44 1
    45   15   45 1
    46   19   46 1
    47   19   47 1
    48   20   48 1
    49   21   49 1
    50   22   50 1
    51   23   51 1
    52   23   52 1
    53   23   53 1
@<TRIPOS>SUBSTRUCTURE
1 LIG11 1
@<TRIPOS>COMMENT
424102 CHEMBL400553
PLANTSproteinTorsions
3
593 289.1503
841 222.2373
2683 327.5769
PLANTSmolcadARTstart hb
PLANTSmolcadARTstart HB
LINES
32.2884 -7.34551 70.2441 31.7411 -5.66873 69.3242 0 255 0 5
PLANTSmolcadARTstart HBCH
LINES
31.006 -8.48321 67.8001 32.877 -8.317 66.861 255 0 0 5
28.4685 -6.19238 68.4463 30.1449 -5.07421 68.867 255 0 0 5
28.4685 -6.19238 68.4463 29.245 -5.8475 66.5261 255 0 0 5
28.4685 -6.19238 68.4463 27.8673 -4.4679 67.7309 255 0 0 5
PLANTSmolcadARTstart HB-CHO
LINES
PLANTSmolcadARTend
PLANTSmolcadARTstart HB_WATER
LINES
PLANTSmolcadARTend

PLANTSmolcadARTend

@<TRIPOS>MOLECULE
424102 CHEMBL400553_entry_00001_conf_25
53 53 1
SMALL
NO_CHARGES


@<TRIPOS>ATOM
      1 C          26.1898   -9.1889   67.6330 C.3       1 LIG11       0.0000
      2 C          27.2130   -9.4080   66.5317 C.3       1 LIG11       0.0000
      3 C          27.7907   -8.1140   65.9472 C.3       1 LIG11       0.0000
      4 C          28.7537   -8.2642   64.7071 C.3       1 LIG11       0.0000
      5 C          28.0223   -9.1942   63.7056 C.3       1 LIG11       0.0000
      6 O          29.0100   -6.9642   64.1181 O.3       1 LIG11       0.0000
      7 C          29.5878   -6.9332   62.8136 C.3       1 LIG11       0.0000
      8 C          30.1863   -8.8840   65.1265 C.3       1 LIG11       0.0000
      9 N          30.8898   -9.4069   63.9129 N.am      1 LIG11       0.0000
     10 C          31.9200   -8.7706   63.2513 C.2       1 LIG11       0.0000
     11 C          32.4585   -9.4995   62.0398 C.3       1 LIG11       0.0000
     12 O          32.3562   -7.6712   63.5809 O.2       1 LIG11       0.0000
     13 C          30.1300  -10.0893   66.1546 C.3       1 LIG11       0.0000
     14 N          31.3975  -10.6070   66.7466 N.4       1 LIG11       0.0000
     15 CA         31.9301  -11.5805   65.7506 C.3       1 LIG11       0.0000
     16 C          32.8843  -12.5695   66.4439 C.2       1 LIG11       0.0000
     17 O          34.1331  -12.5193   65.8994 O.co2     1 LIG11       0.0000
     18 OXT        32.5863  -13.3303   67.3358 O.co2     1 LIG11       0.0000
     19 C          30.7133  -12.2491   65.1412 C.3       1 LIG11       0.0000
     20 C          29.5106  -11.3875   65.5537 C.3       1 LIG11       0.0000
     21 C          28.5838  -12.1234   66.5016 C.2       1 LIG11       0.0000
     22 C          28.8744  -13.3207   67.0368 C.2       1 LIG11       0.0000
     23 C          27.9908  -14.0353   68.0057 C.3       1 LIG11       0.0000
     24 H          25.8372  -10.1355   67.9857 H         1 LIG11       0.0000
     25 H          25.3674   -8.6227   67.2483 H         1 LIG11       0.0000
     26 H          26.6442   -8.6540   68.4408 H         1 LIG11       0.0000
     27 H          26.7431   -9.9537   65.7403 H         1 LIG11       0.0000
     28 H          28.0307   -9.9396   66.9718 H         1 LIG11       0.0000
     29 H          28.3378   -7.6230   66.7247 H         1 LIG11       0.0000
     30 H          26.9456   -7.5688   65.5821 H         1 LIG11       0.0000
     31 H          27.0784   -8.7638   63.4432 H         1 LIG11       0.0000
     32 H          27.8646  -10.1512   64.1574 H         1 LIG11       0.0000
     33 H          28.6189   -9.3095   62.8249 H         1 LIG11       0.0000
     34 H          29.7203   -5.9169   62.5063 H         1 LIG11       0.0000
     35 H          28.9392   -7.4325   62.1243 H         1 LIG11       0.0000
     36 H          30.5368   -7.4269   62.8319 H         1 LIG11       0.0000
     37 H          30.6934   -8.0692   65.5996 H         1 LIG11       0.0000
     38 H          30.5932  -10.2759   63.5578 H         1 LIG11       0.0000
     39 H          31.9474  -10.4329   61.9289 H         1 LIG11       0.0000
     40 H          33.5055   -9.6791   62.1679 H         1 LIG11       0.0000
     41 H          32.3035   -8.9019   61.1659 H         1 LIG11       0.0000
     42 H          29.5536   -9.5936   66.9075 H         1 LIG11       0.0000
     43 H          31.2127  -11.0712   67.6358 H         1 LIG11       0.0000
     44 H          32.0618   -9.8567   66.9369 H         1 LIG11       0.0000
     45 H          32.5106  -11.1174   64.9803 H         1 LIG11       0.0000
     46 H          30.6061  -13.2440   65.5201 H         1 LIG11       0.0000
     47 H          30.7971  -12.3240   64.0771 H         1 LIG11       0.0000
     48 H          28.8758  -11.1494   64.7259 H         1 LIG11       0.0000
     49 H          27.6840  -11.6821   66.7481 H         1 LIG11       0.0000
     50 H          29.7603  -13.7733   66.7622 H         1 LIG11       0.0000
     51 H          27.1167  -13.4471   68.1921 H         1 LIG11       0.0000
     52 H          28.5192  -14.1898   68.9233 H         1 LIG11       0.0000
     53 H          27.7036  -14.9811   67.5960 H         1 LIG11       0.0000
@<TRIPOS>BOND
     1    1    2 1
     2    2    3 1
     3    3    4 1
     4    4    5 1
     5    4    6 1
     6    6    7 1
     7    8    9 1
     8    9   10 am
     9   10   11 1
    10   10   12 2
    11   13   14 1
    12   14   15 1
    13   16   17 ar
    14   16   18 ar
    15   15   19 1
    16   19   20 1
    17   13   20 1
    18   21   22 2
    19   22   23 1
    20   20   21 1
    21   13    8 1
    22    8    4 1
    23   15   16 1
    24    1   24 1
    25    1   25 1
    26    1   26 1
    27    2   27 1
    28    2   28 1
    29    3   29 1
    30    3   30 1
    31    5   31 1
    32    5   32 1
    33    5   33 1
    34    7   34 1
    35    7   35 1
    36    7   36 1
    37    8   37 1
    38    9   38 1
    39   11   39 1
    40   11   40 1
    41   11   41 1
    42   13   42 1
    43   14   43 1
    44   14   44 1
    45   15   45 1
    46   19   46 1
    47   19   47 1
    48   20   48 1
    49   21   49 1
    50   22   50 1
    51   23   51 1
    52   23   52 1
    53   23   53 1
@<TRIPOS>SUBSTRUCTURE
1 LIG11 1
@<TRIPOS>COMMENT
424102 CHEMBL400553
PLANTSproteinTorsions
3
593 262.9309
841 133.7854
2683 93.6155
PLANTSmolcadARTstart hb
PLANTSmolcadARTstart HB
LINES
34.1331 -12.5193 65.8994 33.8533 -13.3472 64.1697 0 255 0 5
PLANTSmolcadARTstart HBCH
LINES
32.0618 -9.85673 66.9369 32.877 -8.317 66.861 255 0 0 5
34.1331 -12.5193 65.8994 35.9813 -12.8121 66.3855 255 0 0 5
32.5863 -13.3303 67.3358 33.9645 -14.8609 67.3978 255 0 0 5
PLANTSmolcadARTstart HB-CHO
LINES
PLANTSmolcadARTend
PLANTSmolcadARTstart HB_WATER
LINES
PLANTSmolcadARTend

PLANTSmolcadARTend

