@<TRIPOS>MOLECULE
424102 CHEMBL400553
53 53 1
SMALL
GASTEIGER

@<TRIPOS>DICT

@<TRIPOS>ATOM
      1 C           7.6608    1.0123   -4.6138 C.3       1 LIG11       0.0000
      2 C           7.4038    0.3674   -3.2625 C.3       1 LIG11       0.0000
      3 C           8.6481   -0.2547   -2.6187 C.3       1 LIG11       0.0000
      4 C           8.4733   -0.8513   -1.1692 C.3       1 LIG11       0.0000
      5 C           9.8697   -1.3782   -0.7504 C.3       1 LIG11       0.0000
      6 O           8.0125    0.1805   -0.2606 O.3       1 LIG11       0.0000
      7 C           8.9320    1.2167    0.0821 C.3       1 LIG11       0.0000
      8 C           7.3763   -2.0378   -1.1327 C.3       1 LIG11       0.0000
      9 N           6.0391   -1.5079   -1.5479 N.am      1 LIG11       0.0000
     10 C           5.1329   -2.1691   -2.3514 C.2       1 LIG11       0.0000
     11 C           3.8527   -1.4157   -2.6382 C.3       1 LIG11       0.0000
     12 O           5.3475   -3.2735   -2.8430 O.2       1 LIG11       0.0000
     13 C           7.1587   -2.7182    0.2824 C.3       1 LIG11       0.0000
     14 N           8.3286   -3.2962    1.0050 N.4       1 LIG11       0.0000
     15 CA          8.4937   -4.6716    0.4534 C.3       1 LIG11       0.0000
     16 C           9.2619   -5.5496    1.4575 C.2       1 LIG11       0.0000
     17 O          10.1473   -4.8122    2.1862 O.co2     1 LIG11       0.0000
     18 OXT         9.1427   -6.7466    1.5840 O.co2     1 LIG11       0.0000
     19 C           7.0897   -5.1708    0.1726 C.3       1 LIG11       0.0000
     20 C           6.1828   -3.9332    0.2419 C.3       1 LIG11       0.0000
     21 C           5.2273   -3.9949    1.4176 C.2       1 LIG11       0.0000
     22 C           4.2948   -3.0591    1.6606 C.2       1 LIG11       0.0000
     23 C           3.3189   -3.1305    2.7888 C.3       1 LIG11       0.0000
     24 H           6.7476    1.4206   -4.9936 H         1 LIG11       0.0000
     25 H           8.0330    0.2762   -5.2953 H         1 LIG11       0.0000
     26 H           8.3828    1.7944   -4.5042 H         1 LIG11       0.0000
     27 H           6.6718   -0.4023   -3.3914 H         1 LIG11       0.0000
     28 H           7.0740    1.1461   -2.6069 H         1 LIG11       0.0000
     29 H           9.4007    0.5042   -2.5682 H         1 LIG11       0.0000
     30 H           8.8968   -1.0907   -3.2384 H         1 LIG11       0.0000
     31 H          10.5777   -0.5765   -0.7822 H         1 LIG11       0.0000
     32 H          10.1759   -2.1513   -1.4238 H         1 LIG11       0.0000
     33 H           9.8194   -1.7705    0.2438 H         1 LIG11       0.0000
     34 H           8.4613    1.9033    0.7543 H         1 LIG11       0.0000
     35 H           9.2321    1.7349   -0.8047 H         1 LIG11       0.0000
     36 H           9.7920    0.7889    0.5535 H         1 LIG11       0.0000
     37 H           7.7711   -2.7771   -1.7979 H         1 LIG11       0.0000
     38 H           5.7856   -0.6146   -1.2209 H         1 LIG11       0.0000
     39 H           3.8641   -0.4816   -2.1165 H         1 LIG11       0.0000
     40 H           3.0159   -1.9968   -2.3110 H         1 LIG11       0.0000
     41 H           3.7726   -1.2359   -3.6899 H         1 LIG11       0.0000
     42 H           6.8095   -1.8466    0.7955 H         1 LIG11       0.0000
     43 H           8.1460   -3.3333    2.0078 H         1 LIG11       0.0000
     44 H           9.1694   -2.7328    0.8780 H         1 LIG11       0.0000
     45 H           9.0717   -4.6961   -0.4467 H         1 LIG11       0.0000
     46 H           6.7958   -5.8896    0.9087 H         1 LIG11       0.0000
     47 H           7.0266   -5.6519   -0.7811 H         1 LIG11       0.0000
     48 H           5.5288   -3.8584   -0.6017 H         1 LIG11       0.0000
     49 H           5.2969   -4.7965    2.0639 H         1 LIG11       0.0000
     50 H           4.2501   -2.2429    1.0307 H         1 LIG11       0.0000
     51 H           3.4870   -4.0261    3.3496 H         1 LIG11       0.0000
     52 H           2.3225   -3.1356    2.3987 H         1 LIG11       0.0000
     53 H           3.4480   -2.2809    3.4264 H         1 LIG11       0.0000
@<TRIPOS>BOND
     1    1    2 1
     2    2    3 1
     3    3    4 1
     4    4    5 1
     5    4    6 1
     6    6    7 1
     7    8    9 1
     8    9   10 am
     9   10   11 1
    10   10   12 2
    11   13   14 1
    12   14   15 1
    13   16   17 ar
    14   16   18 ar
    15   15   19 1
    16   19   20 1
    17   13   20 1
    18   21   22 2
    19   22   23 1
    20   20   21 1
    21   13    8 1
    22    8    4 1
    23   15   16 1
    24    1   24 1
    25    1   25 1
    26    1   26 1
    27    2   27 1
    28    2   28 1
    29    3   29 1
    30    3   30 1
    31    5   31 1
    32    5   32 1
    33    5   33 1
    34    7   34 1
    35    7   35 1
    36    7   36 1
    37    8   37 1
    38    9   38 1
    39   11   39 1
    40   11   40 1
    41   11   41 1
    42   13   42 1
    43   14   43 1
    44   14   44 1
    45   15   45 1
    46   19   46 1
    47   19   47 1
    48   20   48 1
    49   21   49 1
    50   22   50 1
    51   23   51 1
    52   23   52 1
    53   23   53 1
@<TRIPOS>SUBSTRUCTURE
1 LIG11 1
@<TRIPOS>COMMENT
0.0000



