@<TRIPOS>MOLECULE
129821 CHEMBL81286_entry_00001_conf_01
54 55 1
SMALL
NO_CHARGES


@<TRIPOS>ATOM
      1 C          27.6512  -11.8690   64.2514 C.3       1 LIG11       0.0000
      2 C          27.7827  -10.3503   64.3452 C.3       1 LIG11       0.0000
      3 C          29.0516   -9.8732   65.0847 C.3       1 LIG11       0.0000
      4 C          29.0038   -8.3227   65.2194 C.3       1 LIG11       0.0000
      5 C          28.7246   -7.5970   63.8964 C.3       1 LIG11       0.0000
      6 C          29.9541   -7.4581   63.0173 C.ar      1 LIG11       0.0000
      7 C          30.5876   -8.5820   62.4676 C.ar      1 LIG11       0.0000
      8 C          31.6897   -8.4373   61.6176 C.ar      1 LIG11       0.0000
      9 C          32.1865   -7.1698   61.3222 C.ar      1 LIG11       0.0000
     10 C          31.5965   -6.0472   61.8966 C.ar      1 LIG11       0.0000
     11 C          30.4892   -6.1903   62.7391 C.ar      1 LIG11       0.0000
     12 O          29.2359  -10.4278   66.3951 O.3       1 LIG11       0.0000
     13 C          30.4008  -10.1060   67.1706 C.3       1 LIG11       0.0000
     14 C          31.5155  -10.8850   66.5287 C.2       1 LIG11       0.0000
     15 C          31.8226  -12.1630   66.8900 C.2       1 LIG11       0.0000
     16 C          32.9400  -12.9267   66.2832 C.2       1 LIG11       0.0000
     17 O          32.6738  -14.2660   66.2638 O.co2     1 LIG11       0.0000
     18 O          33.9616  -12.4764   65.8195 O.co2     1 LIG11       0.0000
     19 C          30.9859  -12.8497   67.9322 C.3       1 LIG11       0.0000
     20 C          30.6050  -11.9147   69.0949 C.3       1 LIG11       0.0000
     21 N          29.5010  -12.4971   69.8805 N.4       1 LIG11       0.0000
     22 C          30.3553  -10.4100   68.7059 C.3       1 LIG11       0.0000
     23 N          31.3581   -9.5927   69.4470 N.am      1 LIG11       0.0000
     24 C          31.1619   -8.2827   69.8070 C.2       1 LIG11       0.0000
     25 C          32.2888   -7.6796   70.6147 C.3       1 LIG11       0.0000
     26 O          30.1439   -7.6570   69.5343 O.2       1 LIG11       0.0000
     27 H          26.7515  -12.1173   63.7282 H         1 LIG11       0.0000
     28 H          27.6175  -12.2855   65.2364 H         1 LIG11       0.0000
     29 H          28.4923  -12.2679   63.7240 H         1 LIG11       0.0000
     30 H          26.9278   -9.9702   64.8645 H         1 LIG11       0.0000
     31 H          27.8530   -9.9837   63.3425 H         1 LIG11       0.0000
     32 H          29.8748  -10.2145   64.4924 H         1 LIG11       0.0000
     33 H          29.9474   -7.9871   65.5962 H         1 LIG11       0.0000
     34 H          28.1947   -8.0910   65.8801 H         1 LIG11       0.0000
     35 H          28.3529   -6.6183   64.1176 H         1 LIG11       0.0000
     36 H          28.0131   -8.1856   63.3558 H         1 LIG11       0.0000
     37 H          30.2370   -9.5263   62.6924 H         1 LIG11       0.0000
     38 H          32.1363   -9.2728   61.2081 H         1 LIG11       0.0000
     39 H          32.9879   -7.0634   60.6807 H         1 LIG11       0.0000
     40 H          31.9767   -5.1081   61.7004 H         1 LIG11       0.0000
     41 H          30.0597   -5.3526   63.1620 H         1 LIG11       0.0000
     42 H          30.5134   -9.0419   67.1551 H         1 LIG11       0.0000
     43 H          32.0705  -10.4339   65.7846 H         1 LIG11       0.0000
     44 H          31.5386  -13.6776   68.3247 H         1 LIG11       0.0000
     45 H          30.0791  -13.1687   67.4619 H         1 LIG11       0.0000
     46 H          31.4755  -11.8538   69.7142 H         1 LIG11       0.0000
     47 H          29.7304  -12.4537   70.8734 H         1 LIG11       0.0000
     48 H          29.3641  -13.4697   69.6054 H         1 LIG11       0.0000
     49 H          28.6449  -11.9707   69.7060 H         1 LIG11       0.0000
     50 H          29.3519  -10.1610   68.9815 H         1 LIG11       0.0000
     51 H          32.2114  -10.0178   69.6928 H         1 LIG11       0.0000
     52 H          33.0706   -8.4008   70.7301 H         1 LIG11       0.0000
     53 H          31.9230   -7.3927   71.5784 H         1 LIG11       0.0000
     54 H          32.6702   -6.8183   70.1070 H         1 LIG11       0.0000
@<TRIPOS>BOND
     1    1    2 1
     2    2    3 1
     3    3    4 1
     4    4    5 1
     5    5    6 1
     6    6    7 ar
     7    7    8 ar
     8    8    9 ar
     9    9   10 ar
    10   10   11 ar
    11    6   11 ar
    12    3   12 1
    13   13   14 1
    14   14   15 2
    15   15   16 1
    16   16   17 ar
    17   16   18 ar
    18   15   19 1
    19   19   20 1
    20   20   21 1
    21   20   22 1
    22   13   22 1
    23   22   23 1
    24   23   24 am
    25   24   25 1
    26   24   26 2
    27   13   12 1
    28    1   27 1
    29    1   28 1
    30    1   29 1
    31    2   30 1
    32    2   31 1
    33    3   32 1
    34    4   33 1
    35    4   34 1
    36    5   35 1
    37    5   36 1
    38    7   37 1
    39    8   38 1
    40    9   39 1
    41   10   40 1
    42   11   41 1
    43   13   42 1
    44   14   43 1
    45   19   44 1
    46   19   45 1
    47   20   46 1
    48   21   47 1
    49   21   48 1
    50   21   49 1
    51   22   50 1
    52   23   51 1
    53   25   52 1
    54   25   53 1
    55   25   54 1
@<TRIPOS>SUBSTRUCTURE
1 LIG11 1
@<TRIPOS>COMMENT
129821 CHEMBL81286
PLANTSproteinTorsions
3
593 224.9132
841 275.4958
2683 118.4321
PLANTSmolcadARTstart hb
PLANTSmolcadARTstart HB
LINES
33.9616 -12.4764 65.8195 33.9869 -12.991 64.0655 0 255 0 5
30.1439 -7.65701 69.5343 30.8039 -5.66239 69.4931 0 255 0 5
PLANTSmolcadARTstart HBCH
LINES
32.6738 -14.266 66.2638 31.4287 -14.6973 64.634 255 0 0 5
32.6738 -14.266 66.2638 33.5706 -16.23 65.5806 255 0 0 5
32.6738 -14.266 66.2638 33.9645 -14.8609 67.3978 255 0 0 5
33.9616 -12.4764 65.8195 35.9813 -12.8121 66.3855 255 0 0 5
PLANTSmolcadARTstart HB-CHO
LINES
PLANTSmolcadARTend
PLANTSmolcadARTstart HB_WATER
LINES
PLANTSmolcadARTend

PLANTSmolcadARTend

@<TRIPOS>MOLECULE
129821 CHEMBL81286_entry_00001_conf_02
54 55 1
SMALL
NO_CHARGES


@<TRIPOS>ATOM
      1 C          27.8132  -11.8845   64.1577 C.3       1 LIG11       0.0000
      2 C          27.9367  -10.3624   64.1769 C.3       1 LIG11       0.0000
      3 C          29.1585   -9.8402   64.9637 C.3       1 LIG11       0.0000
      4 C          29.0682   -8.2890   65.0642 C.3       1 LIG11       0.0000
      5 C          28.7794   -7.5999   63.7237 C.3       1 LIG11       0.0000
      6 C          30.0118   -7.4443   62.8515 C.ar      1 LIG11       0.0000
      7 C          30.4946   -6.1777   62.4918 C.ar      1 LIG11       0.0000
      8 C          31.6609   -6.0471   61.7296 C.ar      1 LIG11       0.0000
      9 C          32.3484   -7.1797   61.2990 C.ar      1 LIG11       0.0000
     10 C          31.8561   -8.4443   61.6096 C.ar      1 LIG11       0.0000
     11 C          30.6955   -8.5758   62.3791 C.ar      1 LIG11       0.0000
     12 O          29.2950  -10.3646   66.2923 O.3       1 LIG11       0.0000
     13 C          30.4505  -10.0566   67.0873 C.3       1 LIG11       0.0000
     14 C          31.5681  -10.8427   66.4592 C.2       1 LIG11       0.0000
     15 C          31.8581  -12.1250   66.8193 C.2       1 LIG11       0.0000
     16 C          32.9780  -12.8961   66.2265 C.2       1 LIG11       0.0000
     17 O          32.7121  -14.2355   66.2230 O.co2     1 LIG11       0.0000
     18 O          34.0013  -12.4513   65.7610 O.co2     1 LIG11       0.0000
     19 C          30.9992  -12.8089   67.8452 C.3       1 LIG11       0.0000
     20 C          30.6086  -11.8756   69.0062 C.3       1 LIG11       0.0000
     21 N          29.4873  -12.4516   69.7719 N.4       1 LIG11       0.0000
     22 C          30.3784  -10.3671   68.6202 C.3       1 LIG11       0.0000
     23 N          31.3767   -9.5621   69.3806 N.am      1 LIG11       0.0000
     24 C          31.1739   -8.2616   69.7704 C.2       1 LIG11       0.0000
     25 C          32.2973   -7.6717   70.5924 C.3       1 LIG11       0.0000
     26 O          30.1530   -7.6349   69.5114 O.2       1 LIG11       0.0000
     27 H          26.9467  -12.1649   63.5961 H         1 LIG11       0.0000
     28 H          27.7214  -12.2475   65.1600 H         1 LIG11       0.0000
     29 H          28.6848  -12.3074   63.7036 H         1 LIG11       0.0000
     30 H          27.0518   -9.9589   64.6231 H         1 LIG11       0.0000
     31 H          28.0661  -10.0500   63.1617 H         1 LIG11       0.0000
     32 H          30.0160  -10.1728   64.4168 H         1 LIG11       0.0000
     33 H          29.9996   -7.9201   65.4399 H         1 LIG11       0.0000
     34 H          28.2482   -8.0649   65.7141 H         1 LIG11       0.0000
     35 H          28.3779   -6.6279   63.9210 H         1 LIG11       0.0000
     36 H          28.0896   -8.2201   63.1904 H         1 LIG11       0.0000
     37 H          29.9843   -5.3327   62.7926 H         1 LIG11       0.0000
     38 H          32.0130   -5.1082   61.4855 H         1 LIG11       0.0000
     39 H          33.2183   -7.0817   60.7525 H         1 LIG11       0.0000
     40 H          32.3483   -9.2861   61.2716 H         1 LIG11       0.0000
     41 H          30.3369   -9.5173   62.6026 H         1 LIG11       0.0000
     42 H          30.5727   -8.9936   67.0784 H         1 LIG11       0.0000
     43 H          32.1385  -10.3933   65.7259 H         1 LIG11       0.0000
     44 H          31.5383  -13.6433   68.2425 H         1 LIG11       0.0000
     45 H          30.0971  -13.1176   67.3595 H         1 LIG11       0.0000
     46 H          31.4698  -11.8253   69.6393 H         1 LIG11       0.0000
     47 H          28.7454  -11.7576   69.8625 H         1 LIG11       0.0000
     48 H          29.8132  -12.7239   70.6992 H         1 LIG11       0.0000
     49 H          29.1278  -13.2718   69.2835 H         1 LIG11       0.0000
     50 H          29.3730  -10.1103   68.8814 H         1 LIG11       0.0000
     51 H          32.2319   -9.9885   69.6171 H         1 LIG11       0.0000
     52 H          33.0826   -8.3915   70.6919 H         1 LIG11       0.0000
     53 H          31.9296   -7.4088   71.5622 H         1 LIG11       0.0000
     54 H          32.6748   -6.7971   70.1050 H         1 LIG11       0.0000
@<TRIPOS>BOND
     1    1    2 1
     2    2    3 1
     3    3    4 1
     4    4    5 1
     5    5    6 1
     6    6    7 ar
     7    7    8 ar
     8    8    9 ar
     9    9   10 ar
    10   10   11 ar
    11    6   11 ar
    12    3   12 1
    13   13   14 1
    14   14   15 2
    15   15   16 1
    16   16   17 ar
    17   16   18 ar
    18   15   19 1
    19   19   20 1
    20   20   21 1
    21   20   22 1
    22   13   22 1
    23   22   23 1
    24   23   24 am
    25   24   25 1
    26   24   26 2
    27   13   12 1
    28    1   27 1
    29    1   28 1
    30    1   29 1
    31    2   30 1
    32    2   31 1
    33    3   32 1
    34    4   33 1
    35    4   34 1
    36    5   35 1
    37    5   36 1
    38    7   37 1
    39    8   38 1
    40    9   39 1
    41   10   40 1
    42   11   41 1
    43   13   42 1
    44   14   43 1
    45   19   44 1
    46   19   45 1
    47   20   46 1
    48   21   47 1
    49   21   48 1
    50   21   49 1
    51   22   50 1
    52   23   51 1
    53   25   52 1
    54   25   53 1
    55   25   54 1
@<TRIPOS>SUBSTRUCTURE
1 LIG11 1
@<TRIPOS>COMMENT
129821 CHEMBL81286
PLANTSproteinTorsions
3
593 225.2181
841 91.1272
2683 123.1459
PLANTSmolcadARTstart hb
PLANTSmolcadARTstart HB
LINES
34.0013 -12.4513 65.761 34.0045 -12.9276 64.0285 0 255 0 5
30.153 -7.63485 69.5114 30.7988 -5.66077 69.492 0 255 0 5
PLANTSmolcadARTstart HBCH
LINES
32.7121 -14.2355 66.223 31.4287 -14.6973 64.634 255 0 0 5
32.7121 -14.2355 66.223 33.5706 -16.23 65.5806 255 0 0 5
32.7121 -14.2355 66.223 33.9645 -14.8609 67.3978 255 0 0 5
34.0013 -12.4513 65.761 35.9813 -12.8121 66.3855 255 0 0 5
PLANTSmolcadARTstart HB-CHO
LINES
PLANTSmolcadARTend
PLANTSmolcadARTstart HB_WATER
LINES
PLANTSmolcadARTend

PLANTSmolcadARTend

@<TRIPOS>MOLECULE
129821 CHEMBL81286_entry_00001_conf_03
54 55 1
SMALL
NO_CHARGES


@<TRIPOS>ATOM
      1 C          26.2782   -8.3105   64.8516 C.3       1 LIG11       0.0000
      2 C          27.2275   -9.3720   65.4032 C.3       1 LIG11       0.0000
      3 C          28.1213  -10.0345   64.3322 C.3       1 LIG11       0.0000
      4 C          28.7498   -8.9226   63.4418 C.3       1 LIG11       0.0000
      5 C          29.4712   -7.8279   64.2395 C.3       1 LIG11       0.0000
      6 C          30.4907   -7.0600   63.4179 C.ar      1 LIG11       0.0000
      7 C          30.1971   -6.6194   62.1193 C.ar      1 LIG11       0.0000
      8 C          31.1270   -5.8686   61.3916 C.ar      1 LIG11       0.0000
      9 C          32.3701   -5.5659   61.9430 C.ar      1 LIG11       0.0000
     10 C          32.6933   -6.0351   63.2132 C.ar      1 LIG11       0.0000
     11 C          31.7610   -6.7780   63.9450 C.ar      1 LIG11       0.0000
     12 O          29.1861  -10.8466   64.8471 O.3       1 LIG11       0.0000
     13 C          30.1255  -10.3115   65.7922 C.3       1 LIG11       0.0000
     14 C          31.3783  -11.1172   65.5851 C.2       1 LIG11       0.0000
     15 C          31.6195  -12.2847   66.2460 C.2       1 LIG11       0.0000
     16 C          32.8663  -13.0688   66.0701 C.2       1 LIG11       0.0000
     17 O          32.6320  -14.4086   66.1916 O.co2     1 LIG11       0.0000
     18 O          33.9673  -12.6377   65.8178 O.co2     1 LIG11       0.0000
     19 C          30.5748  -12.8256   67.1807 C.3       1 LIG11       0.0000
     20 C          29.9072  -11.7228   68.0231 C.3       1 LIG11       0.0000
     21 N          28.6615  -12.2260   68.6317 N.4       1 LIG11       0.0000
     22 C          29.7231  -10.3341   67.3052 C.3       1 LIG11       0.0000
     23 N          30.5019   -9.3301   68.0850 N.am      1 LIG11       0.0000
     24 C          30.4310   -9.1987   69.4496 C.2       1 LIG11       0.0000
     25 C          31.3648   -8.1599   70.0282 C.3       1 LIG11       0.0000
     26 O          29.7024   -9.8887   70.1532 O.2       1 LIG11       0.0000
     27 H          25.6970   -7.9016   65.6515 H         1 LIG11       0.0000
     28 H          25.6269   -8.7554   64.1288 H         1 LIG11       0.0000
     29 H          26.8457   -7.5307   64.3882 H         1 LIG11       0.0000
     30 H          26.6424  -10.1354   65.8721 H         1 LIG11       0.0000
     31 H          27.8825   -8.8751   66.0881 H         1 LIG11       0.0000
     32 H          27.4765  -10.6906   63.7857 H         1 LIG11       0.0000
     33 H          27.9690   -8.4654   62.8707 H         1 LIG11       0.0000
     34 H          29.4847   -9.3949   62.8238 H         1 LIG11       0.0000
     35 H          29.9754   -8.2854   65.0650 H         1 LIG11       0.0000
     36 H          28.7287   -7.1269   64.5592 H         1 LIG11       0.0000
     37 H          29.2850   -6.8515   61.6957 H         1 LIG11       0.0000
     38 H          30.8912   -5.5380   60.4429 H         1 LIG11       0.0000
     39 H          33.0479   -4.9966   61.4125 H         1 LIG11       0.0000
     40 H          33.6222   -5.8345   63.6156 H         1 LIG11       0.0000
     41 H          32.0102   -7.1234   64.8849 H         1 LIG11       0.0000
     42 H          30.2143   -9.2628   65.5986 H         1 LIG11       0.0000
     43 H          32.0839  -10.7723   64.9155 H         1 LIG11       0.0000
     44 H          31.0369  -13.5292   67.8413 H         1 LIG11       0.0000
     45 H          29.8134  -13.2850   66.5856 H         1 LIG11       0.0000
     46 H          30.6038  -11.4919   68.8018 H         1 LIG11       0.0000
     47 H          28.0806  -12.6554   67.9116 H         1 LIG11       0.0000
     48 H          28.1550  -11.4510   69.0597 H         1 LIG11       0.0000
     49 H          28.8874  -12.9195   69.3446 H         1 LIG11       0.0000
     50 H          28.6775  -10.1074   67.2903 H         1 LIG11       0.0000
     51 H          31.1027   -8.7256   67.5921 H         1 LIG11       0.0000
     52 H          31.9008   -7.6810   69.2356 H         1 LIG11       0.0000
     53 H          32.0576   -8.6334   70.6920 H         1 LIG11       0.0000
     54 H          30.7969   -7.4301   70.5665 H         1 LIG11       0.0000
@<TRIPOS>BOND
     1    1    2 1
     2    2    3 1
     3    3    4 1
     4    4    5 1
     5    5    6 1
     6    6    7 ar
     7    7    8 ar
     8    8    9 ar
     9    9   10 ar
    10   10   11 ar
    11    6   11 ar
    12    3   12 1
    13   13   14 1
    14   14   15 2
    15   15   16 1
    16   16   17 ar
    17   16   18 ar
    18   15   19 1
    19   19   20 1
    20   20   21 1
    21   20   22 1
    22   13   22 1
    23   22   23 1
    24   23   24 am
    25   24   25 1
    26   24   26 2
    27   13   12 1
    28    1   27 1
    29    1   28 1
    30    1   29 1
    31    2   30 1
    32    2   31 1
    33    3   32 1
    34    4   33 1
    35    4   34 1
    36    5   35 1
    37    5   36 1
    38    7   37 1
    39    8   38 1
    40    9   39 1
    41   10   40 1
    42   11   41 1
    43   13   42 1
    44   14   43 1
    45   19   44 1
    46   19   45 1
    47   20   46 1
    48   21   47 1
    49   21   48 1
    50   21   49 1
    51   22   50 1
    52   23   51 1
    53   25   52 1
    54   25   53 1
    55   25   54 1
@<TRIPOS>SUBSTRUCTURE
1 LIG11 1
@<TRIPOS>COMMENT
129821 CHEMBL81286
PLANTSproteinTorsions
3
593 120.6803
841 71.2641
2683 126.9633
PLANTSmolcadARTstart hb
PLANTSmolcadARTstart HB
LINES
31.1027 -8.72564 67.5921 32.877 -8.317 66.861 0 255 0 5
33.9673 -12.6377 65.8178 34.0167 -12.878 63.9949 0 255 0 5
PLANTSmolcadARTstart HBCH
LINES
32.632 -14.4086 66.1916 31.4287 -14.6973 64.634 255 0 0 5
32.632 -14.4086 66.1916 33.5706 -16.23 65.5806 255 0 0 5
32.632 -14.4086 66.1916 33.9645 -14.8609 67.3978 255 0 0 5
33.9673 -12.6377 65.8178 35.9813 -12.8121 66.3855 255 0 0 5
PLANTSmolcadARTstart HB-CHO
LINES
PLANTSmolcadARTend
PLANTSmolcadARTstart HB_WATER
LINES
PLANTSmolcadARTend

PLANTSmolcadARTend

@<TRIPOS>MOLECULE
129821 CHEMBL81286_entry_00001_conf_04
54 55 1
SMALL
NO_CHARGES


@<TRIPOS>ATOM
      1 C          26.3219   -8.5257   64.4491 C.3       1 LIG11       0.0000
      2 C          27.1904   -9.6095   65.0842 C.3       1 LIG11       0.0000
      3 C          28.1206  -10.3348   64.0875 C.3       1 LIG11       0.0000
      4 C          28.9582   -9.2734   63.3155 C.3       1 LIG11       0.0000
      5 C          29.6818   -8.2751   64.2293 C.3       1 LIG11       0.0000
      6 C          30.5647   -7.2998   63.4721 C.ar      1 LIG11       0.0000
      7 C          30.1893   -6.8010   62.2163 C.ar      1 LIG11       0.0000
      8 C          30.9876   -5.8635   61.5516 C.ar      1 LIG11       0.0000
      9 C          32.1814   -5.4278   62.1224 C.ar      1 LIG11       0.0000
     10 C          32.5898   -5.9481   63.3474 C.ar      1 LIG11       0.0000
     11 C          31.7880   -6.8784   64.0169 C.ar      1 LIG11       0.0000
     12 O          29.0296  -11.2746   64.6785 O.3       1 LIG11       0.0000
     13 C          29.9323  -10.8673   65.7184 C.3       1 LIG11       0.0000
     14 C          30.8183  -12.0610   65.9456 C.2       1 LIG11       0.0000
     15 C          30.5037  -13.0537   66.8252 C.2       1 LIG11       0.0000
     16 C          31.3871  -14.2182   67.0773 C.2       1 LIG11       0.0000
     17 O          32.3997  -14.2809   66.1634 O.co2     1 LIG11       0.0000
     18 O          31.2934  -15.0212   67.9763 O.co2     1 LIG11       0.0000
     19 C          29.1961  -12.9903   67.5627 C.3       1 LIG11       0.0000
     20 C          28.8515  -11.5653   68.0338 C.3       1 LIG11       0.0000
     21 N          27.4268  -11.4788   68.4054 N.4       1 LIG11       0.0000
     22 C          29.3088  -10.4019   67.0771 C.3       1 LIG11       0.0000
     23 N          30.2631   -9.5518   67.8448 N.am      1 LIG11       0.0000
     24 C          30.0173   -9.0749   69.1083 C.2       1 LIG11       0.0000
     25 C          31.1599   -8.2932   69.7160 C.3       1 LIG11       0.0000
     26 O          28.9759   -9.2923   69.7168 O.2       1 LIG11       0.0000
     27 H          25.7097   -8.0733   65.2009 H         1 LIG11       0.0000
     28 H          25.6988   -8.9630   63.6972 H         1 LIG11       0.0000
     29 H          26.9488   -7.7815   64.0041 H         1 LIG11       0.0000
     30 H          26.5462  -10.3365   65.5331 H         1 LIG11       0.0000
     31 H          27.8216   -9.1215   65.7971 H         1 LIG11       0.0000
     32 H          27.4734  -10.8992   63.4491 H         1 LIG11       0.0000
     33 H          28.3008   -8.7272   62.6719 H         1 LIG11       0.0000
     34 H          29.7125   -9.8043   62.7731 H         1 LIG11       0.0000
     35 H          30.2924   -8.8236   64.9156 H         1 LIG11       0.0000
     36 H          28.9303   -7.7003   64.7291 H         1 LIG11       0.0000
     37 H          29.3146   -7.1289   61.7776 H         1 LIG11       0.0000
     38 H          30.6910   -5.4936   60.6349 H         1 LIG11       0.0000
     39 H          32.7601   -4.7227   61.6396 H         1 LIG11       0.0000
     40 H          33.4855   -5.6469   63.7622 H         1 LIG11       0.0000
     41 H          32.1000   -7.2602   64.9235 H         1 LIG11       0.0000
     42 H          30.4295   -9.9810   65.3836 H         1 LIG11       0.0000
     43 H          31.7002  -12.1314   65.4140 H         1 LIG11       0.0000
     44 H          29.2540  -13.6298   68.4186 H         1 LIG11       0.0000
     45 H          28.4273  -13.3038   66.8878 H         1 LIG11       0.0000
     46 H          29.4473  -11.3970   68.9065 H         1 LIG11       0.0000
     47 H          26.9534  -12.3427   68.1410 H         1 LIG11       0.0000
     48 H          26.9958  -10.6924   67.9194 H         1 LIG11       0.0000
     49 H          27.3460  -11.3414   69.4129 H         1 LIG11       0.0000
     50 H          28.4365   -9.8582   66.7799 H         1 LIG11       0.0000
     51 H          31.1204   -9.3188   67.4204 H         1 LIG11       0.0000
     52 H          31.9617   -8.2267   69.0106 H         1 LIG11       0.0000
     53 H          31.5024   -8.7907   70.5993 H         1 LIG11       0.0000
     54 H          30.8244   -7.3090   69.9684 H         1 LIG11       0.0000
@<TRIPOS>BOND
     1    1    2 1
     2    2    3 1
     3    3    4 1
     4    4    5 1
     5    5    6 1
     6    6    7 ar
     7    7    8 ar
     8    8    9 ar
     9    9   10 ar
    10   10   11 ar
    11    6   11 ar
    12    3   12 1
    13   13   14 1
    14   14   15 2
    15   15   16 1
    16   16   17 ar
    17   16   18 ar
    18   15   19 1
    19   19   20 1
    20   20   21 1
    21   20   22 1
    22   13   22 1
    23   22   23 1
    24   23   24 am
    25   24   25 1
    26   24   26 2
    27   13   12 1
    28    1   27 1
    29    1   28 1
    30    1   29 1
    31    2   30 1
    32    2   31 1
    33    3   32 1
    34    4   33 1
    35    4   34 1
    36    5   35 1
    37    5   36 1
    38    7   37 1
    39    8   38 1
    40    9   39 1
    41   10   40 1
    42   11   41 1
    43   13   42 1
    44   14   43 1
    45   19   44 1
    46   19   45 1
    47   20   46 1
    48   21   47 1
    49   21   48 1
    50   21   49 1
    51   22   50 1
    52   23   51 1
    53   25   52 1
    54   25   53 1
    55   25   54 1
@<TRIPOS>SUBSTRUCTURE
1 LIG11 1
@<TRIPOS>COMMENT
129821 CHEMBL81286
PLANTSproteinTorsions
3
593 266.1446
841 301.6284
2683 60.5172
PLANTSmolcadARTstart hb
PLANTSmolcadARTstart HB
LINES
31.1204 -9.3188 67.4204 32.877 -8.317 66.861 0 255 0 5
PLANTSmolcadARTstart HBCH
LINES
32.3997 -14.2809 66.1634 31.4287 -14.6973 64.634 255 0 0 5
32.3997 -14.2809 66.1634 33.5706 -16.23 65.5806 255 0 0 5
32.3997 -14.2809 66.1634 33.9645 -14.8609 67.3978 255 0 0 5
PLANTSmolcadARTstart HB-CHO
LINES
PLANTSmolcadARTend
PLANTSmolcadARTstart HB_WATER
LINES
PLANTSmolcadARTend

PLANTSmolcadARTend

@<TRIPOS>MOLECULE
129821 CHEMBL81286_entry_00001_conf_05
54 55 1
SMALL
NO_CHARGES


@<TRIPOS>ATOM
      1 C          26.4058   -8.5459   64.3262 C.3       1 LIG11       0.0000
      2 C          27.2688   -9.6100   65.0010 C.3       1 LIG11       0.0000
      3 C          28.1982  -10.3735   64.0325 C.3       1 LIG11       0.0000
      4 C          29.0829   -9.3459   63.2673 C.3       1 LIG11       0.0000
      5 C          29.7585   -8.3134   64.1799 C.3       1 LIG11       0.0000
      6 C          30.6326   -7.3276   63.4263 C.ar      1 LIG11       0.0000
      7 C          31.9015   -6.9671   63.9022 C.ar      1 LIG11       0.0000
      8 C          32.7182   -6.0965   63.1720 C.ar      1 LIG11       0.0000
      9 C          32.2702   -5.5583   61.9677 C.ar      1 LIG11       0.0000
     10 C          30.9950   -5.8710   61.5051 C.ar      1 LIG11       0.0000
     11 C          30.1814   -6.7482   62.2297 C.ar      1 LIG11       0.0000
     12 O          29.0664  -11.3326   64.6531 O.3       1 LIG11       0.0000
     13 C          29.9704  -10.9365   65.6961 C.3       1 LIG11       0.0000
     14 C          30.8403  -12.1413   65.9268 C.2       1 LIG11       0.0000
     15 C          30.5099  -13.1296   66.8055 C.2       1 LIG11       0.0000
     16 C          31.3774  -14.3053   67.0612 C.2       1 LIG11       0.0000
     17 O          32.3896  -14.3840   66.1479 O.co2     1 LIG11       0.0000
     18 O          31.2725  -15.1046   67.9621 O.co2     1 LIG11       0.0000
     19 C          29.2006  -13.0494   67.5384 C.3       1 LIG11       0.0000
     20 C          28.8725  -11.6199   68.0078 C.3       1 LIG11       0.0000
     21 N          27.4477  -11.5151   68.3743 N.4       1 LIG11       0.0000
     22 C          29.3481  -10.4628   67.0525 C.3       1 LIG11       0.0000
     23 N          30.3104   -9.6247   67.8234 N.am      1 LIG11       0.0000
     24 C          30.0501   -9.1105   69.0692 C.2       1 LIG11       0.0000
     25 C          31.2022   -8.3504   69.6864 C.3       1 LIG11       0.0000
     26 O          28.9883   -9.2810   69.6571 O.2       1 LIG11       0.0000
     27 H          25.7937   -8.0649   65.0602 H         1 LIG11       0.0000
     28 H          25.7825   -9.0071   63.5889 H         1 LIG11       0.0000
     29 H          27.0365   -7.8203   63.8566 H         1 LIG11       0.0000
     30 H          26.6208  -10.3182   65.4738 H         1 LIG11       0.0000
     31 H          27.9004   -9.0994   65.6976 H         1 LIG11       0.0000
     32 H          27.5484  -10.9260   63.3865 H         1 LIG11       0.0000
     33 H          28.4654   -8.8243   62.5663 H         1 LIG11       0.0000
     34 H          29.8641   -9.9000   62.7901 H         1 LIG11       0.0000
     35 H          30.3673   -8.8339   64.8894 H         1 LIG11       0.0000
     36 H          28.9806   -7.7507   64.6525 H         1 LIG11       0.0000
     37 H          32.2368   -7.3481   64.8008 H         1 LIG11       0.0000
     38 H          33.6560   -5.8522   63.5270 H         1 LIG11       0.0000
     39 H          32.8807   -4.9308   61.4212 H         1 LIG11       0.0000
     40 H          30.6493   -5.4549   60.6262 H         1 LIG11       0.0000
     41 H          29.2367   -6.9726   61.8801 H         1 LIG11       0.0000
     42 H          30.4801  -10.0567   65.3629 H         1 LIG11       0.0000
     43 H          31.7231  -12.2232   65.3985 H         1 LIG11       0.0000
     44 H          29.2472  -13.6893   68.3947 H         1 LIG11       0.0000
     45 H          28.4303  -13.3532   66.8607 H         1 LIG11       0.0000
     46 H          29.4673  -11.4590   68.8826 H         1 LIG11       0.0000
     47 H          27.1331  -10.5537   68.2442 H         1 LIG11       0.0000
     48 H          27.3273  -11.7830   69.3510 H         1 LIG11       0.0000
     49 H          26.8975  -12.1362   67.7811 H         1 LIG11       0.0000
     50 H          28.4839   -9.9080   66.7520 H         1 LIG11       0.0000
     51 H          31.1844   -9.4285   67.4146 H         1 LIG11       0.0000
     52 H          32.0220   -8.3256   68.9993 H         1 LIG11       0.0000
     53 H          31.5079   -8.8372   70.5889 H         1 LIG11       0.0000
     54 H          30.8920   -7.3506   69.9079 H         1 LIG11       0.0000
@<TRIPOS>BOND
     1    1    2 1
     2    2    3 1
     3    3    4 1
     4    4    5 1
     5    5    6 1
     6    6    7 ar
     7    7    8 ar
     8    8    9 ar
     9    9   10 ar
    10   10   11 ar
    11    6   11 ar
    12    3   12 1
    13   13   14 1
    14   14   15 2
    15   15   16 1
    16   16   17 ar
    17   16   18 ar
    18   15   19 1
    19   19   20 1
    20   20   21 1
    21   20   22 1
    22   13   22 1
    23   22   23 1
    24   23   24 am
    25   24   25 1
    26   24   26 2
    27   13   12 1
    28    1   27 1
    29    1   28 1
    30    1   29 1
    31    2   30 1
    32    2   31 1
    33    3   32 1
    34    4   33 1
    35    4   34 1
    36    5   35 1
    37    5   36 1
    38    7   37 1
    39    8   38 1
    40    9   39 1
    41   10   40 1
    42   11   41 1
    43   13   42 1
    44   14   43 1
    45   19   44 1
    46   19   45 1
    47   20   46 1
    48   21   47 1
    49   21   48 1
    50   21   49 1
    51   22   50 1
    52   23   51 1
    53   25   52 1
    54   25   53 1
    55   25   54 1
@<TRIPOS>SUBSTRUCTURE
1 LIG11 1
@<TRIPOS>COMMENT
129821 CHEMBL81286
PLANTSproteinTorsions
3
593 164.8120
841 58.3416
2683 272.4778
PLANTSmolcadARTstart hb
PLANTSmolcadARTstart HB
LINES
31.1844 -9.42851 67.4146 32.877 -8.317 66.861 0 255 0 5
PLANTSmolcadARTstart HBCH
LINES
32.3896 -14.384 66.1479 31.4287 -14.6973 64.634 255 0 0 5
32.3896 -14.384 66.1479 33.5706 -16.23 65.5806 255 0 0 5
32.3896 -14.384 66.1479 33.9645 -14.8609 67.3978 255 0 0 5
PLANTSmolcadARTstart HB-CHO
LINES
PLANTSmolcadARTend
PLANTSmolcadARTstart HB_WATER
LINES
PLANTSmolcadARTend

PLANTSmolcadARTend

@<TRIPOS>MOLECULE
129821 CHEMBL81286_entry_00001_conf_06
54 55 1
SMALL
NO_CHARGES


@<TRIPOS>ATOM
      1 C          26.6171   -9.8137   63.4568 C.3       1 LIG11       0.0000
      2 C          28.0726  -10.1247   63.1148 C.3       1 LIG11       0.0000
      3 C          29.0191  -10.1267   64.3350 C.3       1 LIG11       0.0000
      4 C          28.9932   -8.7171   64.9956 C.3       1 LIG11       0.0000
      5 C          29.0129   -7.5620   63.9854 C.3       1 LIG11       0.0000
      6 C          30.3574   -7.3843   63.3036 C.ar      1 LIG11       0.0000
      7 C          30.7154   -6.1679   62.7046 C.ar      1 LIG11       0.0000
      8 C          31.9776   -6.0010   62.1240 C.ar      1 LIG11       0.0000
      9 C          32.8909   -7.0530   62.1156 C.ar      1 LIG11       0.0000
     10 C          32.5331   -8.2807   62.6660 C.ar      1 LIG11       0.0000
     11 C          31.2749   -8.4457   63.2546 C.ar      1 LIG11       0.0000
     12 O          28.7064  -11.0968   65.3449 O.3       1 LIG11       0.0000
     13 C          29.3357  -11.0420   66.6344 C.3       1 LIG11       0.0000
     14 C          30.7820  -11.3563   66.3684 C.2       1 LIG11       0.0000
     15 C          31.2686  -12.6296   66.3607 C.2       1 LIG11       0.0000
     16 C          32.6994  -12.9453   66.1298 C.2       1 LIG11       0.0000
     17 O          32.8733  -14.2632   65.8174 O.co2     1 LIG11       0.0000
     18 O          33.6296  -12.1739   66.1660 O.co2     1 LIG11       0.0000
     19 C          30.3208  -13.7763   66.5714 C.3       1 LIG11       0.0000
     20 C          29.2714  -13.4835   67.6597 C.3       1 LIG11       0.0000
     21 N          28.1598  -14.4490   67.5730 N.4       1 LIG11       0.0000
     22 C          28.7824  -11.9901   67.7510 C.3       1 LIG11       0.0000
     23 N          29.1440  -11.4919   69.1088 N.am      1 LIG11       0.0000
     24 C          28.6943  -12.0572   70.2761 C.2       1 LIG11       0.0000
     25 C          29.2501  -11.4259   71.5325 C.3       1 LIG11       0.0000
     26 O          27.9353  -13.0190   70.3071 O.2       1 LIG11       0.0000
     27 H          26.0291   -9.8313   62.5630 H         1 LIG11       0.0000
     28 H          26.5554   -8.8442   63.9052 H         1 LIG11       0.0000
     29 H          26.2469  -10.5476   64.1418 H         1 LIG11       0.0000
     30 H          28.4198   -9.3879   62.4210 H         1 LIG11       0.0000
     31 H          28.0899  -11.1145   62.7085 H         1 LIG11       0.0000
     32 H          29.9827  -10.3888   63.9507 H         1 LIG11       0.0000
     33 H          29.8498   -8.6256   65.6301 H         1 LIG11       0.0000
     34 H          28.0737   -8.6426   65.5378 H         1 LIG11       0.0000
     35 H          28.7708   -6.6560   64.5005 H         1 LIG11       0.0000
     36 H          28.2991   -7.7951   63.2231 H         1 LIG11       0.0000
     37 H          30.0405   -5.3872   62.6918 H         1 LIG11       0.0000
     38 H          32.2330   -5.0952   61.7005 H         1 LIG11       0.0000
     39 H          33.8280   -6.9229   61.7034 H         1 LIG11       0.0000
     40 H          33.1971   -9.0703   62.6396 H         1 LIG11       0.0000
     41 H          31.0177   -9.3600   63.6581 H         1 LIG11       0.0000
     42 H          29.1423  -10.0732   67.0456 H         1 LIG11       0.0000
     43 H          31.4325  -10.5765   66.1843 H         1 LIG11       0.0000
     44 H          30.8845  -14.6382   66.8617 H         1 LIG11       0.0000
     45 H          29.7981  -13.9385   65.6520 H         1 LIG11       0.0000
     46 H          29.7764  -13.6207   68.5931 H         1 LIG11       0.0000
     47 H          27.3469  -14.0766   68.0637 H         1 LIG11       0.0000
     48 H          28.4411  -15.3308   68.0015 H         1 LIG11       0.0000
     49 H          27.9227  -14.6074   66.5936 H         1 LIG11       0.0000
     50 H          27.7250  -11.9795   67.5881 H         1 LIG11       0.0000
     51 H          29.7407  -10.7114   69.1720 H         1 LIG11       0.0000
     52 H          29.8859  -10.6067   71.2689 H         1 LIG11       0.0000
     53 H          29.8139  -12.1537   72.0779 H         1 LIG11       0.0000
     54 H          28.4440  -11.0707   72.1399 H         1 LIG11       0.0000
@<TRIPOS>BOND
     1    1    2 1
     2    2    3 1
     3    3    4 1
     4    4    5 1
     5    5    6 1
     6    6    7 ar
     7    7    8 ar
     8    8    9 ar
     9    9   10 ar
    10   10   11 ar
    11    6   11 ar
    12    3   12 1
    13   13   14 1
    14   14   15 2
    15   15   16 1
    16   16   17 ar
    17   16   18 ar
    18   15   19 1
    19   19   20 1
    20   20   21 1
    21   20   22 1
    22   13   22 1
    23   22   23 1
    24   23   24 am
    25   24   25 1
    26   24   26 2
    27   13   12 1
    28    1   27 1
    29    1   28 1
    30    1   29 1
    31    2   30 1
    32    2   31 1
    33    3   32 1
    34    4   33 1
    35    4   34 1
    36    5   35 1
    37    5   36 1
    38    7   37 1
    39    8   38 1
    40    9   39 1
    41   10   40 1
    42   11   41 1
    43   13   42 1
    44   14   43 1
    45   19   44 1
    46   19   45 1
    47   20   46 1
    48   21   47 1
    49   21   48 1
    50   21   49 1
    51   22   50 1
    52   23   51 1
    53   25   52 1
    54   25   53 1
    55   25   54 1
@<TRIPOS>SUBSTRUCTURE
1 LIG11 1
@<TRIPOS>COMMENT
129821 CHEMBL81286
PLANTSproteinTorsions
3
593 212.7903
841 116.1683
2683 43.7447
PLANTSmolcadARTstart hb
PLANTSmolcadARTstart HB
LINES
27.9227 -14.6074 66.5936 26.952 -15.333 64.878 0 255 0 5
32.8733 -14.2632 65.8174 33.4709 -13.9638 63.9005 0 255 0 5
PLANTSmolcadARTstart HBCH
LINES
32.8733 -14.2632 65.8174 31.4287 -14.6973 64.634 255 0 0 5
32.8733 -14.2632 65.8174 33.5706 -16.23 65.5806 255 0 0 5
32.8733 -14.2632 65.8174 33.9645 -14.8609 67.3978 255 0 0 5
PLANTSmolcadARTstart HB-CHO
LINES
PLANTSmolcadARTend
PLANTSmolcadARTstart HB_WATER
LINES
PLANTSmolcadARTend

PLANTSmolcadARTend

@<TRIPOS>MOLECULE
129821 CHEMBL81286_entry_00001_conf_07
54 55 1
SMALL
NO_CHARGES


@<TRIPOS>ATOM
      1 C          27.4798  -11.9207   63.9932 C.3       1 LIG11       0.0000
      2 C          27.7605  -10.4231   64.0952 C.3       1 LIG11       0.0000
      3 C          28.9949  -10.0713   64.9539 C.3       1 LIG11       0.0000
      4 C          29.0111   -8.5353   65.2083 C.3       1 LIG11       0.0000
      5 C          28.8065   -7.6976   63.9388 C.3       1 LIG11       0.0000
      6 C          30.0580   -7.5833   63.0876 C.ar      1 LIG11       0.0000
      7 C          30.6641   -8.7169   62.5273 C.ar      1 LIG11       0.0000
      8 C          31.7879   -8.5930   61.7027 C.ar      1 LIG11       0.0000
      9 C          32.3334   -7.3375   61.4438 C.ar      1 LIG11       0.0000
     10 C          31.7700   -6.2073   62.0296 C.ar      1 LIG11       0.0000
     11 C          30.6413   -6.3292   62.8467 C.ar      1 LIG11       0.0000
     12 O          29.0591  -10.7333   66.2252 O.3       1 LIG11       0.0000
     13 C          30.1143  -10.4379   67.1534 C.3       1 LIG11       0.0000
     14 C          31.3440  -11.0519   66.5434 C.2       1 LIG11       0.0000
     15 C          31.7147  -12.3427   66.7769 C.2       1 LIG11       0.0000
     16 C          32.9425  -12.9460   66.2037 C.2       1 LIG11       0.0000
     17 O          32.8152  -14.2989   66.0689 O.co2     1 LIG11       0.0000
     18 O          33.9426  -12.3648   65.8518 O.co2     1 LIG11       0.0000
     19 C          30.8378  -13.2123   67.6329 C.3       1 LIG11       0.0000
     20 C          30.2733  -12.4627   68.8538 C.3       1 LIG11       0.0000
     21 N          29.1477  -13.2136   69.4409 N.4       1 LIG11       0.0000
     22 C          29.9443  -10.9402   68.6266 C.3       1 LIG11       0.0000
     23 N          30.8027  -10.1610   69.5640 N.am      1 LIG11       0.0000
     24 C          32.1602  -10.3293   69.6778 C.2       1 LIG11       0.0000
     25 C          32.8307   -9.3781   70.6430 C.3       1 LIG11       0.0000
     26 O          32.7911  -11.1538   69.0264 O.2       1 LIG11       0.0000
     27 H          26.6140  -12.0807   63.3852 H         1 LIG11       0.0000
     28 H          27.3072  -12.3187   64.9713 H         1 LIG11       0.0000
     29 H          28.3214  -12.4121   63.5516 H         1 LIG11       0.0000
     30 H          26.9040   -9.9491   64.5274 H         1 LIG11       0.0000
     31 H          27.9658  -10.0788   63.1031 H         1 LIG11       0.0000
     32 H          29.8409  -10.4094   64.3928 H         1 LIG11       0.0000
     33 H          29.9559   -8.2739   65.6370 H         1 LIG11       0.0000
     34 H          28.1921   -8.3179   65.8618 H         1 LIG11       0.0000
     35 H          28.5005   -6.7136   64.2268 H         1 LIG11       0.0000
     36 H          28.0651   -8.1934   63.3478 H         1 LIG11       0.0000
     37 H          30.2772   -9.6530   62.7252 H         1 LIG11       0.0000
     38 H          32.2142   -9.4348   61.2847 H         1 LIG11       0.0000
     39 H          33.1510   -7.2458   60.8208 H         1 LIG11       0.0000
     40 H          32.1859   -5.2779   61.8608 H         1 LIG11       0.0000
     41 H          30.2319   -5.4860   63.2784 H         1 LIG11       0.0000
     42 H          30.1433   -9.3757   67.2797 H         1 LIG11       0.0000
     43 H          31.9311  -10.4726   65.9230 H         1 LIG11       0.0000
     44 H          31.4135  -14.0455   67.9781 H         1 LIG11       0.0000
     45 H          30.0090  -13.5271   67.0337 H         1 LIG11       0.0000
     46 H          31.0720  -12.4248   69.5648 H         1 LIG11       0.0000
     47 H          28.6784  -13.7489   68.7106 H         1 LIG11       0.0000
     48 H          28.4867  -12.5611   69.8623 H         1 LIG11       0.0000
     49 H          29.4998  -13.8500   70.1560 H         1 LIG11       0.0000
     50 H          28.9023  -10.7959   68.8225 H         1 LIG11       0.0000
     51 H          30.3702   -9.4857   70.1352 H         1 LIG11       0.0000
     52 H          32.0919   -8.7520   71.0980 H         1 LIG11       0.0000
     53 H          33.5355   -8.7713   70.1139 H         1 LIG11       0.0000
     54 H          33.3393   -9.9377   71.4000 H         1 LIG11       0.0000
@<TRIPOS>BOND
     1    1    2 1
     2    2    3 1
     3    3    4 1
     4    4    5 1
     5    5    6 1
     6    6    7 ar
     7    7    8 ar
     8    8    9 ar
     9    9   10 ar
    10   10   11 ar
    11    6   11 ar
    12    3   12 1
    13   13   14 1
    14   14   15 2
    15   15   16 1
    16   16   17 ar
    17   16   18 ar
    18   15   19 1
    19   19   20 1
    20   20   21 1
    21   20   22 1
    22   13   22 1
    23   22   23 1
    24   23   24 am
    25   24   25 1
    26   24   26 2
    27   13   12 1
    28    1   27 1
    29    1   28 1
    30    1   29 1
    31    2   30 1
    32    2   31 1
    33    3   32 1
    34    4   33 1
    35    4   34 1
    36    5   35 1
    37    5   36 1
    38    7   37 1
    39    8   38 1
    40    9   39 1
    41   10   40 1
    42   11   41 1
    43   13   42 1
    44   14   43 1
    45   19   44 1
    46   19   45 1
    47   20   46 1
    48   21   47 1
    49   21   48 1
    50   21   49 1
    51   22   50 1
    52   23   51 1
    53   25   52 1
    54   25   53 1
    55   25   54 1
@<TRIPOS>SUBSTRUCTURE
1 LIG11 1
@<TRIPOS>COMMENT
129821 CHEMBL81286
PLANTSproteinTorsions
3
593 282.9089
841 84.6896
2683 128.2170
PLANTSmolcadARTstart hb
PLANTSmolcadARTstart HB
LINES
33.9426 -12.3648 65.8518 34.0203 -12.8621 63.9832 0 255 0 5
PLANTSmolcadARTstart HBCH
LINES
32.8152 -14.2989 66.0689 31.4287 -14.6973 64.634 255 0 0 5
32.8152 -14.2989 66.0689 33.5706 -16.23 65.5806 255 0 0 5
32.8152 -14.2989 66.0689 33.9645 -14.8609 67.3978 255 0 0 5
33.9426 -12.3648 65.8518 35.9813 -12.8121 66.3855 255 0 0 5
PLANTSmolcadARTstart HB-CHO
LINES
PLANTSmolcadARTend
PLANTSmolcadARTstart HB_WATER
LINES
PLANTSmolcadARTend

PLANTSmolcadARTend

@<TRIPOS>MOLECULE
129821 CHEMBL81286_entry_00001_conf_08
54 55 1
SMALL
NO_CHARGES


@<TRIPOS>ATOM
      1 C          26.6524  -10.1521   63.6176 C.3       1 LIG11       0.0000
      2 C          28.1295  -10.2605   63.2452 C.3       1 LIG11       0.0000
      3 C          29.0962   -9.9380   64.4054 C.3       1 LIG11       0.0000
      4 C          28.9297   -8.4409   64.7992 C.3       1 LIG11       0.0000
      5 C          28.9321   -7.4836   63.5997 C.3       1 LIG11       0.0000
      6 C          30.3060   -7.3009   62.9809 C.ar      1 LIG11       0.0000
      7 C          30.7046   -6.0689   62.4425 C.ar      1 LIG11       0.0000
      8 C          31.9920   -5.8995   61.9209 C.ar      1 LIG11       0.0000
      9 C          32.8909   -6.9637   61.9111 C.ar      1 LIG11       0.0000
     10 C          32.4944   -8.2052   62.4005 C.ar      1 LIG11       0.0000
     11 C          31.2108   -8.3732   62.9303 C.ar      1 LIG11       0.0000
     12 O          28.9135  -10.7315   65.5868 O.3       1 LIG11       0.0000
     13 C          29.7582  -10.5455   66.7331 C.3       1 LIG11       0.0000
     14 C          31.0911  -11.1073   66.3218 C.2       1 LIG11       0.0000
     15 C          31.4197  -12.4195   66.4901 C.2       1 LIG11       0.0000
     16 C          32.7433  -12.9744   66.1153 C.2       1 LIG11       0.0000
     17 O          32.7046  -14.3366   66.0288 O.co2     1 LIG11       0.0000
     18 O          33.7510  -12.3518   65.8733 O.co2     1 LIG11       0.0000
     19 C          30.3974  -13.3626   67.0584 C.3       1 LIG11       0.0000
     20 C          29.5924  -12.7366   68.2122 C.3       1 LIG11       0.0000
     21 N          28.3792  -13.5312   68.4811 N.4       1 LIG11       0.0000
     22 C          29.3011  -11.1951   68.0824 C.3       1 LIG11       0.0000
     23 N          29.9466  -10.5267   69.2482 N.am      1 LIG11       0.0000
     24 C          29.5055  -10.6508   70.5422 C.2       1 LIG11       0.0000
     25 C          30.3602   -9.9391   71.5663 C.3       1 LIG11       0.0000
     26 O          28.5233  -11.3136   70.8557 O.2       1 LIG11       0.0000
     27 H          26.0513  -10.3894   62.7648 H         1 LIG11       0.0000
     28 H          26.4378   -9.1543   63.9386 H         1 LIG11       0.0000
     29 H          26.4332  -10.8366   64.4102 H         1 LIG11       0.0000
     30 H          28.3254   -9.5782   62.4446 H         1 LIG11       0.0000
     31 H          28.3050  -11.2798   62.9708 H         1 LIG11       0.0000
     32 H          30.0744  -10.1651   64.0359 H         1 LIG11       0.0000
     33 H          29.7359   -8.1707   65.4486 H         1 LIG11       0.0000
     34 H          27.9748   -8.3463   65.2728 H         1 LIG11       0.0000
     35 H          28.5770   -6.5287   63.9264 H         1 LIG11       0.0000
     36 H          28.3011   -7.9132   62.8498 H         1 LIG11       0.0000
     37 H          30.0412   -5.2784   62.4308 H         1 LIG11       0.0000
     38 H          32.2766   -4.9827   61.5420 H         1 LIG11       0.0000
     39 H          33.8460   -6.8324   61.5429 H         1 LIG11       0.0000
     40 H          33.1486   -9.0030   62.3723 H         1 LIG11       0.0000
     41 H          30.9250   -9.2977   63.2888 H         1 LIG11       0.0000
     42 H          29.7512   -9.5024   66.9718 H         1 LIG11       0.0000
     43 H          31.7851  -10.4739   65.8949 H         1 LIG11       0.0000
     44 H          30.9001  -14.2335   67.4240 H         1 LIG11       0.0000
     45 H          29.7086  -13.6045   66.2761 H         1 LIG11       0.0000
     46 H          30.2319  -12.7814   69.0690 H         1 LIG11       0.0000
     47 H          28.6397  -14.4057   68.9369 H         1 LIG11       0.0000
     48 H          27.9041  -13.7344   67.6018 H         1 LIG11       0.0000
     49 H          27.7549  -13.0028   69.0906 H         1 LIG11       0.0000
     50 H          28.2397  -11.0599   68.0793 H         1 LIG11       0.0000
     51 H          30.7360   -9.9629   69.0801 H         1 LIG11       0.0000
     52 H          31.1577   -9.4260   71.0708 H         1 LIG11       0.0000
     53 H          30.7669  -10.6543   72.2504 H         1 LIG11       0.0000
     54 H          29.7608   -9.2334   72.1027 H         1 LIG11       0.0000
@<TRIPOS>BOND
     1    1    2 1
     2    2    3 1
     3    3    4 1
     4    4    5 1
     5    5    6 1
     6    6    7 ar
     7    7    8 ar
     8    8    9 ar
     9    9   10 ar
    10   10   11 ar
    11    6   11 ar
    12    3   12 1
    13   13   14 1
    14   14   15 2
    15   15   16 1
    16   16   17 ar
    17   16   18 ar
    18   15   19 1
    19   19   20 1
    20   20   21 1
    21   20   22 1
    22   13   22 1
    23   22   23 1
    24   23   24 am
    25   24   25 1
    26   24   26 2
    27   13   12 1
    28    1   27 1
    29    1   28 1
    30    1   29 1
    31    2   30 1
    32    2   31 1
    33    3   32 1
    34    4   33 1
    35    4   34 1
    36    5   35 1
    37    5   36 1
    38    7   37 1
    39    8   38 1
    40    9   39 1
    41   10   40 1
    42   11   41 1
    43   13   42 1
    44   14   43 1
    45   19   44 1
    46   19   45 1
    47   20   46 1
    48   21   47 1
    49   21   48 1
    50   21   49 1
    51   22   50 1
    52   23   51 1
    53   25   52 1
    54   25   53 1
    55   25   54 1
@<TRIPOS>SUBSTRUCTURE
1 LIG11 1
@<TRIPOS>COMMENT
129821 CHEMBL81286
PLANTSproteinTorsions
3
593 219.9294
841 83.3942
2683 127.6571
PLANTSmolcadARTstart hb
PLANTSmolcadARTstart HB
LINES
33.751 -12.3518 65.8733 34.0187 -12.8692 63.9885 0 255 0 5
PLANTSmolcadARTstart HBCH
LINES
32.7046 -14.3366 66.0288 31.4287 -14.6973 64.634 255 0 0 5
32.7046 -14.3366 66.0288 33.5706 -16.23 65.5806 255 0 0 5
32.7046 -14.3366 66.0288 33.9645 -14.8609 67.3978 255 0 0 5
33.751 -12.3518 65.8733 35.9813 -12.8121 66.3855 255 0 0 5
PLANTSmolcadARTstart HB-CHO
LINES
PLANTSmolcadARTend
PLANTSmolcadARTstart HB_WATER
LINES
PLANTSmolcadARTend

PLANTSmolcadARTend

@<TRIPOS>MOLECULE
129821 CHEMBL81286_entry_00001_conf_09
54 55 1
SMALL
NO_CHARGES


@<TRIPOS>ATOM
      1 C          27.6092  -12.0377   64.0683 C.3       1 LIG11       0.0000
      2 C          27.7835  -10.5229   64.1539 C.3       1 LIG11       0.0000
      3 C          28.9833  -10.0753   65.0170 C.3       1 LIG11       0.0000
      4 C          28.8810   -8.5418   65.2662 C.3       1 LIG11       0.0000
      5 C          28.6767   -7.7211   63.9857 C.3       1 LIG11       0.0000
      6 C          29.9232   -7.6336   63.1240 C.ar      1 LIG11       0.0000
      7 C          30.4441   -6.3960   62.7196 C.ar      1 LIG11       0.0000
      8 C          31.6224   -6.3273   61.9681 C.ar      1 LIG11       0.0000
      9 C          32.2845   -7.4942   61.5928 C.ar      1 LIG11       0.0000
     10 C          31.7549   -8.7317   61.9480 C.ar      1 LIG11       0.0000
     11 C          30.5820   -8.8011   62.7069 C.ar      1 LIG11       0.0000
     12 O          29.0917  -10.7266   66.2909 O.3       1 LIG11       0.0000
     13 C          30.1703  -10.4129   67.1855 C.3       1 LIG11       0.0000
     14 C          31.3881  -11.0194   66.5448 C.2       1 LIG11       0.0000
     15 C          31.7787  -12.3044   66.7776 C.2       1 LIG11       0.0000
     16 C          32.9956  -12.8999   66.1736 C.2       1 LIG11       0.0000
     17 O          32.8623  -14.2497   66.0153 O.co2     1 LIG11       0.0000
     18 O          33.9917  -12.3148   65.8169 O.co2     1 LIG11       0.0000
     19 C          30.9362  -13.1757   67.6657 C.3       1 LIG11       0.0000
     20 C          30.3997  -12.4218   68.8966 C.3       1 LIG11       0.0000
     21 N          29.2996  -13.1792   69.5223 N.4       1 LIG11       0.0000
     22 C          30.0485  -10.9047   68.6670 C.3       1 LIG11       0.0000
     23 N          30.9256  -10.1091   69.5727 N.am      1 LIG11       0.0000
     24 C          32.2740  -10.3234   69.7147 C.2       1 LIG11       0.0000
     25 C          32.9699   -9.3474   70.6361 C.3       1 LIG11       0.0000
     26 O          32.8797  -11.2062   69.1179 O.2       1 LIG11       0.0000
     27 H          26.7617  -12.2651   63.4561 H         1 LIG11       0.0000
     28 H          27.4572  -12.4353   65.0499 H         1 LIG11       0.0000
     29 H          28.4868  -12.4740   63.6388 H         1 LIG11       0.0000
     30 H          26.8925  -10.1052   64.5741 H         1 LIG11       0.0000
     31 H          27.9721  -10.1768   63.1591 H         1 LIG11       0.0000
     32 H          29.8553  -10.3496   64.4610 H         1 LIG11       0.0000
     33 H          29.7848   -8.2150   65.7364 H         1 LIG11       0.0000
     34 H          28.0200   -8.3816   65.8810 H         1 LIG11       0.0000
     35 H          28.3837   -6.7295   64.2609 H         1 LIG11       0.0000
     36 H          27.9255   -8.2173   63.4074 H         1 LIG11       0.0000
     37 H          29.9529   -5.5262   62.9792 H         1 LIG11       0.0000
     38 H          32.0024   -5.4087   61.6906 H         1 LIG11       0.0000
     39 H          33.1632   -7.4415   61.0542 H         1 LIG11       0.0000
     40 H          32.2284   -9.5992   61.6508 H         1 LIG11       0.0000
     41 H          30.1956   -9.7230   62.9637 H         1 LIG11       0.0000
     42 H          30.1920   -9.3494   67.3024 H         1 LIG11       0.0000
     43 H          31.9508  -10.4393   65.9029 H         1 LIG11       0.0000
     44 H          31.5304  -14.0001   68.0006 H         1 LIG11       0.0000
     45 H          30.0937  -13.5039   67.0935 H         1 LIG11       0.0000
     46 H          31.2184  -12.3700   69.5837 H         1 LIG11       0.0000
     47 H          28.8557  -12.6047   70.2386 H         1 LIG11       0.0000
     48 H          29.6708  -14.0280   69.9490 H         1 LIG11       0.0000
     49 H          28.6115  -13.4288   68.8119 H         1 LIG11       0.0000
     50 H          29.0112  -10.7693   68.8920 H         1 LIG11       0.0000
     51 H          30.5133   -9.3872   70.1002 H         1 LIG11       0.0000
     52 H          32.2509   -8.6692   71.0459 H         1 LIG11       0.0000
     53 H          33.7044   -8.7983   70.0849 H         1 LIG11       0.0000
     54 H          33.4469   -9.8839   71.4295 H         1 LIG11       0.0000
@<TRIPOS>BOND
     1    1    2 1
     2    2    3 1
     3    3    4 1
     4    4    5 1
     5    5    6 1
     6    6    7 ar
     7    7    8 ar
     8    8    9 ar
     9    9   10 ar
    10   10   11 ar
    11    6   11 ar
    12    3   12 1
    13   13   14 1
    14   14   15 2
    15   15   16 1
    16   16   17 ar
    17   16   18 ar
    18   15   19 1
    19   19   20 1
    20   20   21 1
    21   20   22 1
    22   13   22 1
    23   22   23 1
    24   23   24 am
    25   24   25 1
    26   24   26 2
    27   13   12 1
    28    1   27 1
    29    1   28 1
    30    1   29 1
    31    2   30 1
    32    2   31 1
    33    3   32 1
    34    4   33 1
    35    4   34 1
    36    5   35 1
    37    5   36 1
    38    7   37 1
    39    8   38 1
    40    9   39 1
    41   10   40 1
    42   11   41 1
    43   13   42 1
    44   14   43 1
    45   19   44 1
    46   19   45 1
    47   20   46 1
    48   21   47 1
    49   21   48 1
    50   21   49 1
    51   22   50 1
    52   23   51 1
    53   25   52 1
    54   25   53 1
    55   25   54 1
@<TRIPOS>SUBSTRUCTURE
1 LIG11 1
@<TRIPOS>COMMENT
129821 CHEMBL81286
PLANTSproteinTorsions
3
593 230.9135
841 75.8897
2683 129.1230
PLANTSmolcadARTstart hb
PLANTSmolcadARTstart HB
LINES
33.9917 -12.3148 65.8169 34.0228 -12.8507 63.9745 0 255 0 5
PLANTSmolcadARTstart HBCH
LINES
32.8623 -14.2497 66.0153 31.4287 -14.6973 64.634 255 0 0 5
32.8623 -14.2497 66.0153 33.5706 -16.23 65.5806 255 0 0 5
32.8623 -14.2497 66.0153 33.9645 -14.8609 67.3978 255 0 0 5
33.9917 -12.3148 65.8169 35.9813 -12.8121 66.3855 255 0 0 5
PLANTSmolcadARTstart HB-CHO
LINES
PLANTSmolcadARTend
PLANTSmolcadARTstart HB_WATER
LINES
PLANTSmolcadARTend

PLANTSmolcadARTend

@<TRIPOS>MOLECULE
129821 CHEMBL81286_entry_00001_conf_10
54 55 1
SMALL
NO_CHARGES


@<TRIPOS>ATOM
      1 C          26.3533   -8.3573   64.3327 C.3       1 LIG11       0.0000
      2 C          27.2961   -9.3411   65.0224 C.3       1 LIG11       0.0000
      3 C          28.2376  -10.0927   64.0563 C.3       1 LIG11       0.0000
      4 C          28.9864   -9.0534   63.1712 C.3       1 LIG11       0.0000
      5 C          29.6802   -7.9451   63.9747 C.3       1 LIG11       0.0000
      6 C          30.7795   -7.2411   63.2001 C.ar      1 LIG11       0.0000
      7 C          31.6872   -6.3843   63.8392 C.ar      1 LIG11       0.0000
      8 C          32.7271   -5.7814   63.1228 C.ar      1 LIG11       0.0000
      9 C          32.8615   -6.0095   61.7551 C.ar      1 LIG11       0.0000
     10 C          31.9410   -6.8213   61.0981 C.ar      1 LIG11       0.0000
     11 C          30.9066   -7.4317   61.8150 C.ar      1 LIG11       0.0000
     12 O          29.2188  -10.9261   64.6899 O.3       1 LIG11       0.0000
     13 C          30.1019  -10.3907   65.6877 C.3       1 LIG11       0.0000
     14 C          31.3740  -11.1782   65.5357 C.2       1 LIG11       0.0000
     15 C          31.5964  -12.3504   66.1948 C.2       1 LIG11       0.0000
     16 C          32.8606  -13.1168   66.0739 C.2       1 LIG11       0.0000
     17 O          32.6438  -14.4579   66.2123 O.co2     1 LIG11       0.0000
     18 O          33.9623  -12.6722   65.8496 O.co2     1 LIG11       0.0000
     19 C          30.5126  -12.9154   67.0688 C.3       1 LIG11       0.0000
     20 C          29.7887  -11.8312   67.8884 C.3       1 LIG11       0.0000
     21 N          28.5203  -12.3570   68.4269 N.4       1 LIG11       0.0000
     22 C          29.6233  -10.4364   67.1778 C.3       1 LIG11       0.0000
     23 N          30.3483   -9.4322   68.0076 N.am      1 LIG11       0.0000
     24 C          29.9870   -9.0932   69.2878 C.2       1 LIG11       0.0000
     25 C          30.9125   -8.1036   69.9587 C.3       1 LIG11       0.0000
     26 O          29.0181   -9.5768   69.8620 O.2       1 LIG11       0.0000
     27 H          25.7375   -7.8799   65.0660 H         1 LIG11       0.0000
     28 H          25.7352   -8.8842   63.6362 H         1 LIG11       0.0000
     29 H          26.9267   -7.6186   63.8128 H         1 LIG11       0.0000
     30 H          26.7046  -10.0633   65.5454 H         1 LIG11       0.0000
     31 H          27.9185   -8.7663   65.6759 H         1 LIG11       0.0000
     32 H          27.6066  -10.7447   63.4893 H         1 LIG11       0.0000
     33 H          28.2776   -8.5988   62.5111 H         1 LIG11       0.0000
     34 H          29.7521   -9.5844   62.6452 H         1 LIG11       0.0000
     35 H          30.1089   -8.3800   64.8533 H         1 LIG11       0.0000
     36 H          28.9378   -7.2113   64.2094 H         1 LIG11       0.0000
     37 H          31.5873   -6.1964   64.8491 H         1 LIG11       0.0000
     38 H          33.3969   -5.1653   63.6095 H         1 LIG11       0.0000
     39 H          33.6396   -5.5788   61.2315 H         1 LIG11       0.0000
     40 H          32.0220   -6.9730   60.0805 H         1 LIG11       0.0000
     41 H          30.2277   -8.0302   61.3191 H         1 LIG11       0.0000
     42 H          30.1868   -9.3388   65.5107 H         1 LIG11       0.0000
     43 H          32.1081  -10.8166   64.9069 H         1 LIG11       0.0000
     44 H          30.9496  -13.6210   67.7441 H         1 LIG11       0.0000
     45 H          29.7885  -13.3771   66.4304 H         1 LIG11       0.0000
     46 H          30.4416  -11.6009   68.7042 H         1 LIG11       0.0000
     47 H          28.6917  -12.7992   69.3299 H         1 LIG11       0.0000
     48 H          28.1350  -13.0445   67.7793 H         1 LIG11       0.0000
     49 H          27.8570  -11.5910   68.5438 H         1 LIG11       0.0000
     50 H          28.5770  -10.2225   67.1121 H         1 LIG11       0.0000
     51 H          31.1326   -8.9858   67.6141 H         1 LIG11       0.0000
     52 H          31.6840   -7.8167   69.2750 H         1 LIG11       0.0000
     53 H          31.3521   -8.5558   70.8230 H         1 LIG11       0.0000
     54 H          30.3565   -7.2380   70.2528 H         1 LIG11       0.0000
@<TRIPOS>BOND
     1    1    2 1
     2    2    3 1
     3    3    4 1
     4    4    5 1
     5    5    6 1
     6    6    7 ar
     7    7    8 ar
     8    8    9 ar
     9    9   10 ar
    10   10   11 ar
    11    6   11 ar
    12    3   12 1
    13   13   14 1
    14   14   15 2
    15   15   16 1
    16   16   17 ar
    17   16   18 ar
    18   15   19 1
    19   19   20 1
    20   20   21 1
    21   20   22 1
    22   13   22 1
    23   22   23 1
    24   23   24 am
    25   24   25 1
    26   24   26 2
    27   13   12 1
    28    1   27 1
    29    1   28 1
    30    1   29 1
    31    2   30 1
    32    2   31 1
    33    3   32 1
    34    4   33 1
    35    4   34 1
    36    5   35 1
    37    5   36 1
    38    7   37 1
    39    8   38 1
    40    9   39 1
    41   10   40 1
    42   11   41 1
    43   13   42 1
    44   14   43 1
    45   19   44 1
    46   19   45 1
    47   20   46 1
    48   21   47 1
    49   21   48 1
    50   21   49 1
    51   22   50 1
    52   23   51 1
    53   25   52 1
    54   25   53 1
    55   25   54 1
@<TRIPOS>SUBSTRUCTURE
1 LIG11 1
@<TRIPOS>COMMENT
129821 CHEMBL81286
PLANTSproteinTorsions
3
593 228.4990
841 76.9444
2683 121.8329
PLANTSmolcadARTstart hb
PLANTSmolcadARTstart HB
LINES
31.1326 -8.98575 67.6141 32.877 -8.317 66.861 0 255 0 5
33.9623 -12.6722 65.8496 33.9999 -12.945 64.0393 0 255 0 5
PLANTSmolcadARTstart HBCH
LINES
32.6438 -14.4579 66.2123 31.4287 -14.6973 64.634 255 0 0 5
32.6438 -14.4579 66.2123 33.5706 -16.23 65.5806 255 0 0 5
32.6438 -14.4579 66.2123 33.9645 -14.8609 67.3978 255 0 0 5
33.9623 -12.6722 65.8496 35.9813 -12.8121 66.3855 255 0 0 5
PLANTSmolcadARTstart HB-CHO
LINES
PLANTSmolcadARTend
PLANTSmolcadARTstart HB_WATER
LINES
PLANTSmolcadARTend

PLANTSmolcadARTend

@<TRIPOS>MOLECULE
129821 CHEMBL81286_entry_00001_conf_11
54 55 1
SMALL
NO_CHARGES


@<TRIPOS>ATOM
      1 C          26.7793  -10.0265   63.5581 C.3       1 LIG11       0.0000
      2 C          28.2351  -10.1684   63.1191 C.3       1 LIG11       0.0000
      3 C          29.2609   -9.8285   64.2221 C.3       1 LIG11       0.0000
      4 C          29.0613   -8.3469   64.6573 C.3       1 LIG11       0.0000
      5 C          29.0692   -7.3540   63.4871 C.3       1 LIG11       0.0000
      6 C          30.4617   -7.0594   62.9598 C.ar      1 LIG11       0.0000
      7 C          30.7679   -7.1911   61.5977 C.ar      1 LIG11       0.0000
      8 C          32.0415   -6.8676   61.1166 C.ar      1 LIG11       0.0000
      9 C          33.0319   -6.4285   61.9924 C.ar      1 LIG11       0.0000
     10 C          32.7564   -6.3363   63.3539 C.ar      1 LIG11       0.0000
     11 C          31.4810   -6.6508   63.8345 C.ar      1 LIG11       0.0000
     12 O          29.1859  -10.6505   65.3957 O.3       1 LIG11       0.0000
     13 C          30.0497  -10.4086   66.5171 C.3       1 LIG11       0.0000
     14 C          31.3545  -11.0554   66.1421 C.2       1 LIG11       0.0000
     15 C          31.6319  -12.3624   66.4123 C.2       1 LIG11       0.0000
     16 C          32.9280  -12.9990   66.0732 C.2       1 LIG11       0.0000
     17 O          32.8191  -14.3597   66.0379 O.co2     1 LIG11       0.0000
     18 O          33.9689  -12.4391   65.8188 O.co2     1 LIG11       0.0000
     19 C          30.5786  -13.2147   67.0619 C.3       1 LIG11       0.0000
     20 C          29.8118  -12.4664   68.1679 C.3       1 LIG11       0.0000
     21 N          28.5707  -13.1867   68.5086 N.4       1 LIG11       0.0000
     22 C          29.5813  -10.9295   67.9174 C.3       1 LIG11       0.0000
     23 N          30.2657  -10.1973   69.0212 N.am      1 LIG11       0.0000
     24 C          30.2163   -8.8349   69.1816 C.2       1 LIG11       0.0000
     25 C          30.9279   -8.3230   70.4134 C.3       1 LIG11       0.0000
     26 O          29.6148   -8.0904   68.4160 O.2       1 LIG11       0.0000
     27 H          26.1346  -10.2783   62.7421 H         1 LIG11       0.0000
     28 H          26.5946   -9.0168   63.8601 H         1 LIG11       0.0000
     29 H          26.5887  -10.6850   64.3796 H         1 LIG11       0.0000
     30 H          28.4020   -9.5119   62.2907 H         1 LIG11       0.0000
     31 H          28.3828  -11.1975   62.8661 H         1 LIG11       0.0000
     32 H          30.2215  -10.0087   63.7866 H         1 LIG11       0.0000
     33 H          29.8507   -8.0830   65.3296 H         1 LIG11       0.0000
     34 H          28.0964   -8.2827   65.1153 H         1 LIG11       0.0000
     35 H          28.6299   -6.4360   63.8176 H         1 LIG11       0.0000
     36 H          28.5155   -7.8010   62.6881 H         1 LIG11       0.0000
     37 H          30.0460   -7.5302   60.9427 H         1 LIG11       0.0000
     38 H          32.2480   -6.9547   60.1092 H         1 LIG11       0.0000
     39 H          33.9652   -6.1729   61.6337 H         1 LIG11       0.0000
     40 H          33.4944   -6.0355   64.0097 H         1 LIG11       0.0000
     41 H          31.2867   -6.5815   64.8457 H         1 LIG11       0.0000
     42 H          30.0872   -9.3504   66.6716 H         1 LIG11       0.0000
     43 H          32.0687  -10.4869   65.6606 H         1 LIG11       0.0000
     44 H          31.0499  -14.0735   67.4922 H         1 LIG11       0.0000
     45 H          29.8723  -13.4896   66.3066 H         1 LIG11       0.0000
     46 H          30.4582  -12.4690   69.0207 H         1 LIG11       0.0000
     47 H          28.0321  -13.3565   67.6592 H         1 LIG11       0.0000
     48 H          28.0176  -12.6242   69.1551 H         1 LIG11       0.0000
     49 H          28.8040  -14.0776   68.9470 H         1 LIG11       0.0000
     50 H          28.5263  -10.7517   67.9115 H         1 LIG11       0.0000
     51 H          30.7836  -10.7220   69.6736 H         1 LIG11       0.0000
     52 H          31.3813   -9.1430   70.9300 H         1 LIG11       0.0000
     53 H          30.2228   -7.8413   71.0582 H         1 LIG11       0.0000
     54 H          31.6830   -7.6224   70.1239 H         1 LIG11       0.0000
@<TRIPOS>BOND
     1    1    2 1
     2    2    3 1
     3    3    4 1
     4    4    5 1
     5    5    6 1
     6    6    7 ar
     7    7    8 ar
     8    8    9 ar
     9    9   10 ar
    10   10   11 ar
    11    6   11 ar
    12    3   12 1
    13   13   14 1
    14   14   15 2
    15   15   16 1
    16   16   17 ar
    17   16   18 ar
    18   15   19 1
    19   19   20 1
    20   20   21 1
    21   20   22 1
    22   13   22 1
    23   22   23 1
    24   23   24 am
    25   24   25 1
    26   24   26 2
    27   13   12 1
    28    1   27 1
    29    1   28 1
    30    1   29 1
    31    2   30 1
    32    2   31 1
    33    3   32 1
    34    4   33 1
    35    4   34 1
    36    5   35 1
    37    5   36 1
    38    7   37 1
    39    8   38 1
    40    9   39 1
    41   10   40 1
    42   11   41 1
    43   13   42 1
    44   14   43 1
    45   19   44 1
    46   19   45 1
    47   20   46 1
    48   21   47 1
    49   21   48 1
    50   21   49 1
    51   22   50 1
    52   23   51 1
    53   25   52 1
    54   25   53 1
    55   25   54 1
@<TRIPOS>SUBSTRUCTURE
1 LIG11 1
@<TRIPOS>COMMENT
129821 CHEMBL81286
PLANTSproteinTorsions
3
593 220.8465
841 258.8553
2683 130.0867
PLANTSmolcadARTstart hb
PLANTSmolcadARTstart HB
LINES
33.9689 -12.4391 65.8188 34.0253 -12.8387 63.9651 0 255 0 5
PLANTSmolcadARTstart HBCH
LINES
32.8191 -14.3597 66.0379 31.4287 -14.6973 64.634 255 0 0 5
32.8191 -14.3597 66.0379 33.5706 -16.23 65.5806 255 0 0 5
32.8191 -14.3597 66.0379 33.9645 -14.8609 67.3978 255 0 0 5
33.9689 -12.4391 65.8188 35.9813 -12.8121 66.3855 255 0 0 5
PLANTSmolcadARTstart HB-CHO
LINES
PLANTSmolcadARTend
PLANTSmolcadARTstart HB_WATER
LINES
PLANTSmolcadARTend

PLANTSmolcadARTend

@<TRIPOS>MOLECULE
129821 CHEMBL81286_entry_00001_conf_12
54 55 1
SMALL
NO_CHARGES


@<TRIPOS>ATOM
      1 C          27.0130  -11.6638   64.0178 C.3       1 LIG11       0.0000
      2 C          27.3882  -10.1838   64.0524 C.3       1 LIG11       0.0000
      3 C          28.7598   -9.8974   64.7016 C.3       1 LIG11       0.0000
      4 C          28.9859   -8.3575   64.7443 C.3       1 LIG11       0.0000
      5 C          28.8068   -7.6699   63.3840 C.3       1 LIG11       0.0000
      6 C          30.1176   -7.4229   62.6596 C.ar      1 LIG11       0.0000
      7 C          30.5761   -6.1221   62.4061 C.ar      1 LIG11       0.0000
      8 C          31.8104   -5.9078   61.7827 C.ar      1 LIG11       0.0000
      9 C          32.5932   -6.9896   61.3856 C.ar      1 LIG11       0.0000
     10 C          32.1306   -8.2867   61.5894 C.ar      1 LIG11       0.0000
     11 C          30.9011   -8.5020   62.2206 C.ar      1 LIG11       0.0000
     12 O          28.9200  -10.4074   66.0332 O.3       1 LIG11       0.0000
     13 C          30.0944  -10.0995   66.8001 C.3       1 LIG11       0.0000
     14 C          31.1735  -10.9668   66.2129 C.2       1 LIG11       0.0000
     15 C          31.4150  -12.2359   66.6479 C.2       1 LIG11       0.0000
     16 C          32.4974  -13.0861   66.0950 C.2       1 LIG11       0.0000
     17 O          33.5042  -12.3288   65.5683 O.co2     1 LIG11       0.0000
     18 O          32.5530  -14.2938   66.1093 O.co2     1 LIG11       0.0000
     19 C          30.5389  -12.8213   67.7191 C.3       1 LIG11       0.0000
     20 C          30.1971  -11.8049   68.8243 C.3       1 LIG11       0.0000
     21 N          29.0608  -12.2876   69.6311 N.4       1 LIG11       0.0000
     22 C          30.0242  -10.3141   68.3495 C.3       1 LIG11       0.0000
     23 N          31.0612   -9.5062   69.0529 N.am      1 LIG11       0.0000
     24 C          31.0980   -9.3258   70.4132 C.2       1 LIG11       0.0000
     25 C          32.2825   -8.5266   70.9072 C.3       1 LIG11       0.0000
     26 O          30.2653   -9.8021   71.1761 O.2       1 LIG11       0.0000
     27 H          26.0549  -11.7780   63.5555 H         1 LIG11       0.0000
     28 H          26.9750  -12.0456   65.0166 H         1 LIG11       0.0000
     29 H          27.7464  -12.2046   63.4570 H         1 LIG11       0.0000
     30 H          26.6378   -9.6596   64.6066 H         1 LIG11       0.0000
     31 H          27.4534   -9.8576   63.0355 H         1 LIG11       0.0000
     32 H          29.4776  -10.4069   64.0933 H         1 LIG11       0.0000
     33 H          29.9818   -8.1717   65.0882 H         1 LIG11       0.0000
     34 H          28.2449   -7.9506   65.4003 H         1 LIG11       0.0000
     35 H          28.3225   -6.7287   63.5403 H         1 LIG11       0.0000
     36 H          28.2245   -8.3259   62.7713 H         1 LIG11       0.0000
     37 H          29.9968   -5.3139   62.6824 H         1 LIG11       0.0000
     38 H          32.1421   -4.9448   61.6164 H         1 LIG11       0.0000
     39 H          33.5116   -6.8302   60.9425 H         1 LIG11       0.0000
     40 H          32.6957   -9.0907   61.2743 H         1 LIG11       0.0000
     41 H          30.5653   -9.4670   62.3655 H         1 LIG11       0.0000
     42 H          30.2593   -9.0448   66.7262 H         1 LIG11       0.0000
     43 H          31.7547  -10.5859   65.4499 H         1 LIG11       0.0000
     44 H          31.0477  -13.6517   68.1624 H         1 LIG11       0.0000
     45 H          29.6206  -13.1216   67.2592 H         1 LIG11       0.0000
     46 H          31.0655  -11.7517   69.4472 H         1 LIG11       0.0000
     47 H          28.4790  -12.9044   69.0642 H         1 LIG11       0.0000
     48 H          28.5058  -11.4923   69.9470 H         1 LIG11       0.0000
     49 H          29.4117  -12.8001   70.4402 H         1 LIG11       0.0000
     50 H          29.0325  -10.0013   68.6016 H         1 LIG11       0.0000
     51 H          31.7609   -9.0768   68.5096 H         1 LIG11       0.0000
     52 H          32.8732   -8.2114   70.0726 H         1 LIG11       0.0000
     53 H          32.8776   -9.1349   71.5558 H         1 LIG11       0.0000
     54 H          31.9351   -7.6680   71.4429 H         1 LIG11       0.0000
@<TRIPOS>BOND
     1    1    2 1
     2    2    3 1
     3    3    4 1
     4    4    5 1
     5    5    6 1
     6    6    7 ar
     7    7    8 ar
     8    8    9 ar
     9    9   10 ar
    10   10   11 ar
    11    6   11 ar
    12    3   12 1
    13   13   14 1
    14   14   15 2
    15   15   16 1
    16   16   17 ar
    17   16   18 ar
    18   15   19 1
    19   19   20 1
    20   20   21 1
    21   20   22 1
    22   13   22 1
    23   22   23 1
    24   23   24 am
    25   24   25 1
    26   24   26 2
    27   13   12 1
    28    1   27 1
    29    1   28 1
    30    1   29 1
    31    2   30 1
    32    2   31 1
    33    3   32 1
    34    4   33 1
    35    4   34 1
    36    5   35 1
    37    5   36 1
    38    7   37 1
    39    8   38 1
    40    9   39 1
    41   10   40 1
    42   11   41 1
    43   13   42 1
    44   14   43 1
    45   19   44 1
    46   19   45 1
    47   20   46 1
    48   21   47 1
    49   21   48 1
    50   21   49 1
    51   22   50 1
    52   23   51 1
    53   25   52 1
    54   25   53 1
    55   25   54 1
@<TRIPOS>SUBSTRUCTURE
1 LIG11 1
@<TRIPOS>COMMENT
129821 CHEMBL81286
PLANTSproteinTorsions
3
593 243.3668
841 81.6408
2683 115.3466
PLANTSmolcadARTstart hb
PLANTSmolcadARTstart HB
LINES
31.7609 -9.07677 68.5096 32.877 -8.317 66.861 0 255 0 5
33.5042 -12.3288 65.5683 33.9739 -13.0336 64.0869 0 255 0 5
PLANTSmolcadARTstart HBCH
LINES
32.553 -14.2938 66.1093 31.4287 -14.6973 64.634 255 0 0 5
32.553 -14.2938 66.1093 33.5706 -16.23 65.5806 255 0 0 5
32.553 -14.2938 66.1093 33.9645 -14.8609 67.3978 255 0 0 5
PLANTSmolcadARTstart HB-CHO
LINES
PLANTSmolcadARTend
PLANTSmolcadARTstart HB_WATER
LINES
PLANTSmolcadARTend

PLANTSmolcadARTend

@<TRIPOS>MOLECULE
129821 CHEMBL81286_entry_00001_conf_13
54 55 1
SMALL
NO_CHARGES


@<TRIPOS>ATOM
      1 C          27.6065  -11.9775   63.9053 C.3       1 LIG11       0.0000
      2 C          27.8229  -10.4703   64.0228 C.3       1 LIG11       0.0000
      3 C          29.0440  -10.0751   64.8815 C.3       1 LIG11       0.0000
      4 C          29.0289   -8.5336   65.1005 C.3       1 LIG11       0.0000
      5 C          28.8757   -7.7279   63.8034 C.3       1 LIG11       0.0000
      6 C          30.1868   -7.5216   63.0670 C.ar      1 LIG11       0.0000
      7 C          30.8926   -8.6025   62.5191 C.ar      1 LIG11       0.0000
      8 C          32.0739   -8.3936   61.7987 C.ar      1 LIG11       0.0000
      9 C          32.5769   -7.1050   61.6338 C.ar      1 LIG11       0.0000
     10 C          31.9117   -6.0266   62.2107 C.ar      1 LIG11       0.0000
     11 C          30.7260   -6.2334   62.9233 C.ar      1 LIG11       0.0000
     12 O          29.1117  -10.7063   66.1683 O.3       1 LIG11       0.0000
     13 C          30.1839  -10.4084   67.0759 C.3       1 LIG11       0.0000
     14 C          31.3951  -11.0560   66.4635 C.2       1 LIG11       0.0000
     15 C          31.7476  -12.3475   66.7205 C.2       1 LIG11       0.0000
     16 C          32.9576  -12.9835   66.1447 C.2       1 LIG11       0.0000
     17 O          32.8175  -14.3397   66.0683 O.co2     1 LIG11       0.0000
     18 O          33.9534  -12.4253   65.7467 O.co2     1 LIG11       0.0000
     19 C          30.8681  -13.1833   67.6068 C.3       1 LIG11       0.0000
     20 C          30.3325  -12.3979   68.8182 C.3       1 LIG11       0.0000
     21 N          29.2028  -13.1169   69.4365 N.4       1 LIG11       0.0000
     22 C          30.0255  -10.8755   68.5619 C.3       1 LIG11       0.0000
     23 N          30.9091  -10.0904   69.4706 N.am      1 LIG11       0.0000
     24 C          30.7628  -10.0518   70.8349 C.2       1 LIG11       0.0000
     25 C          31.8193   -9.2454   71.5556 C.3       1 LIG11       0.0000
     26 O          29.8751  -10.6500   71.4319 O.2       1 LIG11       0.0000
     27 H          26.7462  -12.1680   63.2982 H         1 LIG11       0.0000
     28 H          27.4546  -12.3931   64.8795 H         1 LIG11       0.0000
     29 H          28.4669  -12.4274   63.4558 H         1 LIG11       0.0000
     30 H          26.9484  -10.0383   64.4627 H         1 LIG11       0.0000
     31 H          28.0098  -10.1069   63.0339 H         1 LIG11       0.0000
     32 H          29.9005  -10.4095   64.3343 H         1 LIG11       0.0000
     33 H          29.9486   -8.2498   65.5678 H         1 LIG11       0.0000
     34 H          28.1767   -8.3124   65.7085 H         1 LIG11       0.0000
     35 H          28.4675   -6.7689   64.0454 H         1 LIG11       0.0000
     36 H          28.2331   -8.2877   63.1563 H         1 LIG11       0.0000
     37 H          30.5369   -9.5626   62.6486 H         1 LIG11       0.0000
     38 H          32.5745   -9.1972   61.3880 H         1 LIG11       0.0000
     39 H          33.4383   -6.9505   61.0868 H         1 LIG11       0.0000
     40 H          32.2941   -5.0730   62.1124 H         1 LIG11       0.0000
     41 H          30.2410   -5.4281   63.3492 H         1 LIG11       0.0000
     42 H          30.2321   -9.3443   67.1783 H         1 LIG11       0.0000
     43 H          31.9832  -10.5003   65.8228 H         1 LIG11       0.0000
     44 H          31.4347  -14.0183   67.9628 H         1 LIG11       0.0000
     45 H          30.0263  -13.4972   67.0257 H         1 LIG11       0.0000
     46 H          31.1413  -12.3579   69.5177 H         1 LIG11       0.0000
     47 H          28.6664  -12.4723   70.0170 H         1 LIG11       0.0000
     48 H          29.5595  -13.8782   70.0140 H         1 LIG11       0.0000
     49 H          28.6013  -13.4975   68.7059 H         1 LIG11       0.0000
     50 H          28.9888  -10.7095   68.7681 H         1 LIG11       0.0000
     51 H          31.6409   -9.5689   69.0683 H         1 LIG11       0.0000
     52 H          32.4874   -8.8127   70.8405 H         1 LIG11       0.0000
     53 H          32.3681   -9.8849   72.2149 H         1 LIG11       0.0000
     54 H          31.3502   -8.4678   72.1215 H         1 LIG11       0.0000
@<TRIPOS>BOND
     1    1    2 1
     2    2    3 1
     3    3    4 1
     4    4    5 1
     5    5    6 1
     6    6    7 ar
     7    7    8 ar
     8    8    9 ar
     9    9   10 ar
    10   10   11 ar
    11    6   11 ar
    12    3   12 1
    13   13   14 1
    14   14   15 2
    15   15   16 1
    16   16   17 ar
    17   16   18 ar
    18   15   19 1
    19   19   20 1
    20   20   21 1
    21   20   22 1
    22   13   22 1
    23   22   23 1
    24   23   24 am
    25   24   25 1
    26   24   26 2
    27   13   12 1
    28    1   27 1
    29    1   28 1
    30    1   29 1
    31    2   30 1
    32    2   31 1
    33    3   32 1
    34    4   33 1
    35    4   34 1
    36    5   35 1
    37    5   36 1
    38    7   37 1
    39    8   38 1
    40    9   39 1
    41   10   40 1
    42   11   41 1
    43   13   42 1
    44   14   43 1
    45   19   44 1
    46   19   45 1
    47   20   46 1
    48   21   47 1
    49   21   48 1
    50   21   49 1
    51   22   50 1
    52   23   51 1
    53   25   52 1
    54   25   53 1
    55   25   54 1
@<TRIPOS>SUBSTRUCTURE
1 LIG11 1
@<TRIPOS>COMMENT
129821 CHEMBL81286
PLANTSproteinTorsions
3
593 224.2112
841 151.5052
2683 129.5298
PLANTSmolcadARTstart hb
PLANTSmolcadARTstart HB
LINES
33.9534 -12.4253 65.7467 34.0238 -12.8456 63.9706 0 255 0 5
PLANTSmolcadARTstart HBCH
LINES
32.8175 -14.3397 66.0683 31.4287 -14.6973 64.634 255 0 0 5
32.8175 -14.3397 66.0683 33.5706 -16.23 65.5806 255 0 0 5
32.8175 -14.3397 66.0683 33.9645 -14.8609 67.3978 255 0 0 5
33.9534 -12.4253 65.7467 35.9813 -12.8121 66.3855 255 0 0 5
PLANTSmolcadARTstart HB-CHO
LINES
PLANTSmolcadARTend
PLANTSmolcadARTstart HB_WATER
LINES
PLANTSmolcadARTend

PLANTSmolcadARTend

@<TRIPOS>MOLECULE
129821 CHEMBL81286_entry_00001_conf_14
54 55 1
SMALL
NO_CHARGES


@<TRIPOS>ATOM
      1 C          26.4843   -7.8103   65.9207 C.3       1 LIG11       0.0000
      2 C          27.6125   -8.7513   66.3377 C.3       1 LIG11       0.0000
      3 C          28.1362   -9.6504   65.1966 C.3       1 LIG11       0.0000
      4 C          28.7331   -8.7479   64.0770 C.3       1 LIG11       0.0000
      5 C          29.9073   -7.8782   64.5463 C.3       1 LIG11       0.0000
      6 C          30.7187   -7.2980   63.4022 C.ar      1 LIG11       0.0000
      7 C          30.1406   -6.4274   62.4671 C.ar      1 LIG11       0.0000
      8 C          30.9118   -5.8593   61.4469 C.ar      1 LIG11       0.0000
      9 C          32.2653   -6.1695   61.3348 C.ar      1 LIG11       0.0000
     10 C          32.8429   -7.0676   62.2281 C.ar      1 LIG11       0.0000
     11 C          32.0749   -7.6289   63.2536 C.ar      1 LIG11       0.0000
     12 O          29.1391  -10.6007   65.5836 O.3       1 LIG11       0.0000
     13 C          30.2445  -10.2050   66.4104 C.3       1 LIG11       0.0000
     14 C          31.3641  -11.1307   66.0217 C.2       1 LIG11       0.0000
     15 C          31.5574  -12.3416   66.6169 C.2       1 LIG11       0.0000
     16 C          32.6774  -13.2464   66.2604 C.2       1 LIG11       0.0000
     17 O          33.8232  -12.5455   66.0140 O.co2     1 LIG11       0.0000
     18 O          32.6495  -14.4540   66.2106 O.co2     1 LIG11       0.0000
     19 C          30.5870  -12.8040   67.6668 C.3       1 LIG11       0.0000
     20 C          30.1578  -11.6697   68.6157 C.3       1 LIG11       0.0000
     21 N          28.9520  -12.0607   69.3696 N.4       1 LIG11       0.0000
     22 C          30.0380  -10.2428   67.9620 C.3       1 LIG11       0.0000
     23 N          31.0158   -9.3578   68.6574 N.am      1 LIG11       0.0000
     24 C          30.8285   -8.8544   69.9206 C.2       1 LIG11       0.0000
     25 C          31.9870   -8.0385   70.4479 C.3       1 LIG11       0.0000
     26 O          29.8249   -9.0748   70.5889 O.2       1 LIG11       0.0000
     27 H          26.1787   -7.2248   66.7625 H         1 LIG11       0.0000
     28 H          25.6542   -8.3843   65.5653 H         1 LIG11       0.0000
     29 H          26.8295   -7.1627   65.1421 H         1 LIG11       0.0000
     30 H          27.2517   -9.3814   67.1237 H         1 LIG11       0.0000
     31 H          28.4310   -8.1349   66.6461 H         1 LIG11       0.0000
     32 H          27.2912  -10.2183   64.8675 H         1 LIG11       0.0000
     33 H          27.9597   -8.1039   63.7140 H         1 LIG11       0.0000
     34 H          29.1110   -9.4003   63.3177 H         1 LIG11       0.0000
     35 H          30.5541   -8.4786   65.1513 H         1 LIG11       0.0000
     36 H          29.4944   -7.0554   65.0916 H         1 LIG11       0.0000
     37 H          29.1353   -6.2031   62.5320 H         1 LIG11       0.0000
     38 H          30.4762   -5.2082   60.7751 H         1 LIG11       0.0000
     39 H          32.8370   -5.7358   60.5931 H         1 LIG11       0.0000
     40 H          33.8392   -7.3196   62.1335 H         1 LIG11       0.0000
     41 H          32.5112   -8.2953   63.9098 H         1 LIG11       0.0000
     42 H          30.4230   -9.1651   66.2323 H         1 LIG11       0.0000
     43 H          32.0124  -10.8372   65.2742 H         1 LIG11       0.0000
     44 H          31.0491  -13.5775   68.2439 H         1 LIG11       0.0000
     45 H          29.7100  -13.1568   67.1654 H         1 LIG11       0.0000
     46 H          30.9691  -11.5441   69.3020 H         1 LIG11       0.0000
     47 H          29.1485  -12.0211   70.3696 H         1 LIG11       0.0000
     48 H          28.6838  -13.0108   69.1132 H         1 LIG11       0.0000
     49 H          28.1896  -11.4206   69.1473 H         1 LIG11       0.0000
     50 H          29.0305   -9.9059   68.0895 H         1 LIG11       0.0000
     51 H          31.8449   -9.1205   68.1824 H         1 LIG11       0.0000
     52 H          32.7488   -7.9755   69.6993 H         1 LIG11       0.0000
     53 H          32.3849   -8.5082   71.3231 H         1 LIG11       0.0000
     54 H          31.6471   -7.0543   70.6947 H         1 LIG11       0.0000
@<TRIPOS>BOND
     1    1    2 1
     2    2    3 1
     3    3    4 1
     4    4    5 1
     5    5    6 1
     6    6    7 ar
     7    7    8 ar
     8    8    9 ar
     9    9   10 ar
    10   10   11 ar
    11    6   11 ar
    12    3   12 1
    13   13   14 1
    14   14   15 2
    15   15   16 1
    16   16   17 ar
    17   16   18 ar
    18   15   19 1
    19   19   20 1
    20   20   21 1
    21   20   22 1
    22   13   22 1
    23   22   23 1
    24   23   24 am
    25   24   25 1
    26   24   26 2
    27   13   12 1
    28    1   27 1
    29    1   28 1
    30    1   29 1
    31    2   30 1
    32    2   31 1
    33    3   32 1
    34    4   33 1
    35    4   34 1
    36    5   35 1
    37    5   36 1
    38    7   37 1
    39    8   38 1
    40    9   39 1
    41   10   40 1
    42   11   41 1
    43   13   42 1
    44   14   43 1
    45   19   44 1
    46   19   45 1
    47   20   46 1
    48   21   47 1
    49   21   48 1
    50   21   49 1
    51   22   50 1
    52   23   51 1
    53   25   52 1
    54   25   53 1
    55   25   54 1
@<TRIPOS>SUBSTRUCTURE
1 LIG11 1
@<TRIPOS>COMMENT
129821 CHEMBL81286
PLANTSproteinTorsions
3
593 117.1515
841 179.1140
2683 126.7685
PLANTSmolcadARTstart hb
PLANTSmolcadARTstart HB
LINES
31.8449 -9.12049 68.1824 32.877 -8.317 66.861 0 255 0 5
33.8232 -12.5455 66.014 34.0161 -12.8805 63.9967 0 255 0 5
PLANTSmolcadARTstart HBCH
LINES
33.8232 -12.5455 66.014 35.9813 -12.8121 66.3855 255 0 0 5
32.6495 -14.454 66.2106 31.4287 -14.6973 64.634 255 0 0 5
32.6495 -14.454 66.2106 33.5706 -16.23 65.5806 255 0 0 5
32.6495 -14.454 66.2106 33.9645 -14.8609 67.3978 255 0 0 5
PLANTSmolcadARTstart HB-CHO
LINES
PLANTSmolcadARTend
PLANTSmolcadARTstart HB_WATER
LINES
PLANTSmolcadARTend

PLANTSmolcadARTend

@<TRIPOS>MOLECULE
129821 CHEMBL81286_entry_00001_conf_15
54 55 1
SMALL
NO_CHARGES


@<TRIPOS>ATOM
      1 C          26.6430  -12.1745   64.0260 C.3       1 LIG11       0.0000
      2 C          27.3729  -10.8396   63.8928 C.3       1 LIG11       0.0000
      3 C          28.7672  -10.8158   64.5562 C.3       1 LIG11       0.0000
      4 C          29.4998   -9.5055   64.1434 C.3       1 LIG11       0.0000
      5 C          29.9192   -9.4721   62.6675 C.3       1 LIG11       0.0000
      6 C          30.6200   -8.1850   62.2721 C.ar      1 LIG11       0.0000
      7 C          30.2238   -6.9478   62.8001 C.ar      1 LIG11       0.0000
      8 C          30.9106   -5.7751   62.4667 C.ar      1 LIG11       0.0000
      9 C          31.9887   -5.8197   61.5855 C.ar      1 LIG11       0.0000
     10 C          32.3650   -7.0338   61.0178 C.ar      1 LIG11       0.0000
     11 C          31.6848   -8.2079   61.3574 C.ar      1 LIG11       0.0000
     12 O          28.7595  -10.8884   65.9892 O.3       1 LIG11       0.0000
     13 C          29.9584  -10.6484   66.7421 C.3       1 LIG11       0.0000
     14 C          30.8229  -11.8504   66.4792 C.2       1 LIG11       0.0000
     15 C          30.7613  -12.9809   67.2384 C.2       1 LIG11       0.0000
     16 C          31.6322  -14.1585   67.0044 C.2       1 LIG11       0.0000
     17 O          31.3199  -15.1836   67.8509 O.co2     1 LIG11       0.0000
     18 O          32.4983  -14.2681   66.1681 O.co2     1 LIG11       0.0000
     19 C          29.7550  -13.0607   68.3515 C.3       1 LIG11       0.0000
     20 C          29.6326  -11.7398   69.1335 C.3       1 LIG11       0.0000
     21 N          28.4012  -11.7371   69.9454 N.4       1 LIG11       0.0000
     22 C          29.8121  -10.4261   68.2851 C.3       1 LIG11       0.0000
     23 N          30.9922   -9.7032   68.8397 N.am      1 LIG11       0.0000
     24 C          31.1730   -9.4454   70.1758 C.2       1 LIG11       0.0000
     25 C          32.4790   -8.7611   70.5105 C.3       1 LIG11       0.0000
     26 O          30.3659   -9.7736   71.0378 O.2       1 LIG11       0.0000
     27 H          25.6903  -12.1097   63.5434 H         1 LIG11       0.0000
     28 H          26.5032  -12.4027   65.0620 H         1 LIG11       0.0000
     29 H          27.2242  -12.9461   63.5661 H         1 LIG11       0.0000
     30 H          26.7711  -10.0805   64.3475 H         1 LIG11       0.0000
     31 H          27.5253  -10.6737   62.8468 H         1 LIG11       0.0000
     32 H          29.2648  -11.6977   64.2106 H         1 LIG11       0.0000
     33 H          30.3779   -9.4051   64.7464 H         1 LIG11       0.0000
     34 H          28.8094   -8.7014   64.2905 H         1 LIG11       0.0000
     35 H          29.0432   -9.5815   62.0629 H         1 LIG11       0.0000
     36 H          30.6149  -10.2710   62.5173 H         1 LIG11       0.0000
     37 H          29.4168   -6.9016   63.4418 H         1 LIG11       0.0000
     38 H          30.6174   -4.8738   62.8751 H         1 LIG11       0.0000
     39 H          32.5058   -4.9569   61.3547 H         1 LIG11       0.0000
     40 H          33.1471   -7.0676   60.3452 H         1 LIG11       0.0000
     41 H          31.9695   -9.1030   60.9299 H         1 LIG11       0.0000
     42 H          30.3601   -9.7114   66.4169 H         1 LIG11       0.0000
     43 H          31.4897  -11.8182   65.6922 H         1 LIG11       0.0000
     44 H          30.0533  -13.8337   69.0285 H         1 LIG11       0.0000
     45 H          28.8014  -13.2675   67.9125 H         1 LIG11       0.0000
     46 H          30.4784  -11.7117   69.7882 H         1 LIG11       0.0000
     47 H          28.6066  -12.1012   70.8757 H         1 LIG11       0.0000
     48 H          27.6977  -12.3246   69.4980 H         1 LIG11       0.0000
     49 H          28.0478  -10.7835   70.0239 H         1 LIG11       0.0000
     50 H          28.9129   -9.8528   68.3720 H         1 LIG11       0.0000
     51 H          31.6826   -9.3924   68.2104 H         1 LIG11       0.0000
     52 H          33.0222   -8.5686   69.6090 H         1 LIG11       0.0000
     53 H          33.0598   -9.3938   71.1487 H         1 LIG11       0.0000
     54 H          32.2793   -7.8366   71.0109 H         1 LIG11       0.0000
@<TRIPOS>BOND
     1    1    2 1
     2    2    3 1
     3    3    4 1
     4    4    5 1
     5    5    6 1
     6    6    7 ar
     7    7    8 ar
     8    8    9 ar
     9    9   10 ar
    10   10   11 ar
    11    6   11 ar
    12    3   12 1
    13   13   14 1
    14   14   15 2
    15   15   16 1
    16   16   17 ar
    17   16   18 ar
    18   15   19 1
    19   19   20 1
    20   20   21 1
    21   20   22 1
    22   13   22 1
    23   22   23 1
    24   23   24 am
    25   24   25 1
    26   24   26 2
    27   13   12 1
    28    1   27 1
    29    1   28 1
    30    1   29 1
    31    2   30 1
    32    2   31 1
    33    3   32 1
    34    4   33 1
    35    4   34 1
    36    5   35 1
    37    5   36 1
    38    7   37 1
    39    8   38 1
    40    9   39 1
    41   10   40 1
    42   11   41 1
    43   13   42 1
    44   14   43 1
    45   19   44 1
    46   19   45 1
    47   20   46 1
    48   21   47 1
    49   21   48 1
    50   21   49 1
    51   22   50 1
    52   23   51 1
    53   25   52 1
    54   25   53 1
    55   25   54 1
@<TRIPOS>SUBSTRUCTURE
1 LIG11 1
@<TRIPOS>COMMENT
129821 CHEMBL81286
PLANTSproteinTorsions
3
593 237.5502
841 79.4566
2683 64.4369
PLANTSmolcadARTstart hb
PLANTSmolcadARTstart HB
LINES
31.6826 -9.39245 68.2104 32.877 -8.317 66.861 0 255 0 5
32.4983 -14.2681 66.1681 33.6359 -13.7465 64.0855 0 255 0 5
PLANTSmolcadARTstart HBCH
LINES
32.4983 -14.2681 66.1681 31.4287 -14.6973 64.634 255 0 0 5
32.4983 -14.2681 66.1681 33.5706 -16.23 65.5806 255 0 0 5
32.4983 -14.2681 66.1681 33.9645 -14.8609 67.3978 255 0 0 5
PLANTSmolcadARTstart HB-CHO
LINES
PLANTSmolcadARTend
PLANTSmolcadARTstart HB_WATER
LINES
PLANTSmolcadARTend

PLANTSmolcadARTend

@<TRIPOS>MOLECULE
129821 CHEMBL81286_entry_00001_conf_16
54 55 1
SMALL
NO_CHARGES


@<TRIPOS>ATOM
      1 C          27.1371  -11.6004   63.6552 C.3       1 LIG11       0.0000
      2 C          27.6216  -10.1545   63.5707 C.3       1 LIG11       0.0000
      3 C          28.7826   -9.8228   64.5334 C.3       1 LIG11       0.0000
      4 C          28.7679   -8.2950   64.8336 C.3       1 LIG11       0.0000
      5 C          28.7416   -7.4191   63.5737 C.3       1 LIG11       0.0000
      6 C          30.0806   -7.3513   62.8622 C.ar      1 LIG11       0.0000
      7 C          30.6254   -8.4761   62.2260 C.ar      1 LIG11       0.0000
      8 C          31.8362   -8.3875   61.5302 C.ar      1 LIG11       0.0000
      9 C          32.5291   -7.1800   61.4783 C.ar      1 LIG11       0.0000
     10 C          32.0237   -6.0663   62.1433 C.ar      1 LIG11       0.0000
     11 C          30.8089   -6.1515   62.8315 C.ar      1 LIG11       0.0000
     12 O          28.7521  -10.5223   65.7858 O.3       1 LIG11       0.0000
     13 C          29.7545  -10.2810   66.7853 C.3       1 LIG11       0.0000
     14 C          30.9674  -11.0250   66.2986 C.2       1 LIG11       0.0000
     15 C          31.2010  -12.3322   66.6064 C.2       1 LIG11       0.0000
     16 C          32.4101  -13.0637   66.1558 C.2       1 LIG11       0.0000
     17 O          33.4062  -12.2023   65.7945 O.co2     1 LIG11       0.0000
     18 O          32.5649  -14.2623   66.1222 O.co2     1 LIG11       0.0000
     19 C          30.1857  -13.0852   67.4188 C.3       1 LIG11       0.0000
     20 C          29.5984  -12.2384   68.5630 C.3       1 LIG11       0.0000
     21 N          28.3677  -12.8630   69.0834 N.4       1 LIG11       0.0000
     22 C          29.4265  -10.7040   68.2567 C.3       1 LIG11       0.0000
     23 N          30.2766   -9.9637   69.2324 N.am      1 LIG11       0.0000
     24 C          30.3540   -8.5946   69.2954 C.2       1 LIG11       0.0000
     25 C          31.2263   -8.0672   70.4120 C.3       1 LIG11       0.0000
     26 O          29.7398   -7.8522   68.5379 O.2       1 LIG11       0.0000
     27 H          26.3363  -11.7492   62.9614 H         1 LIG11       0.0000
     28 H          26.7918  -11.8034   64.6473 H         1 LIG11       0.0000
     29 H          27.9437  -12.2614   63.4160 H         1 LIG11       0.0000
     30 H          26.7990   -9.5102   63.8013 H         1 LIG11       0.0000
     31 H          27.9928  -10.0105   62.5776 H         1 LIG11       0.0000
     32 H          29.6723  -10.1398   64.0306 H         1 LIG11       0.0000
     33 H          29.6458   -8.0527   65.3952 H         1 LIG11       0.0000
     34 H          27.8677   -8.0913   65.3750 H         1 LIG11       0.0000
     35 H          28.4560   -6.4272   63.8555 H         1 LIG11       0.0000
     36 H          28.0434   -7.8618   62.8943 H         1 LIG11       0.0000
     37 H          30.1278   -9.3791   62.2714 H         1 LIG11       0.0000
     38 H          32.2174   -9.2198   61.0537 H         1 LIG11       0.0000
     39 H          33.4127   -7.1115   60.9495 H         1 LIG11       0.0000
     40 H          32.5461   -5.1764   62.1285 H         1 LIG11       0.0000
     41 H          30.4431   -5.3212   63.3233 H         1 LIG11       0.0000
     42 H          29.8694   -9.2210   66.8761 H         1 LIG11       0.0000
     43 H          31.6505  -10.5257   65.7076 H         1 LIG11       0.0000
     44 H          30.6556  -13.9501   67.8385 H         1 LIG11       0.0000
     45 H          29.3808  -13.3516   66.7661 H         1 LIG11       0.0000
     46 H          30.3399  -12.2403   69.3345 H         1 LIG11       0.0000
     47 H          28.4904  -13.8748   69.1227 H         1 LIG11       0.0000
     48 H          27.5861  -12.6390   68.4675 H         1 LIG11       0.0000
     49 H          28.1755  -12.5072   70.0197 H         1 LIG11       0.0000
     50 H          28.3898  -10.4614   68.3625 H         1 LIG11       0.0000
     51 H          30.8142  -10.4878   69.8693 H         1 LIG11       0.0000
     52 H          31.6623   -8.8881   70.9421 H         1 LIG11       0.0000
     53 H          30.6318   -7.4842   71.0839 H         1 LIG11       0.0000
     54 H          32.0022   -7.4562   70.0002 H         1 LIG11       0.0000
@<TRIPOS>BOND
     1    1    2 1
     2    2    3 1
     3    3    4 1
     4    4    5 1
     5    5    6 1
     6    6    7 ar
     7    7    8 ar
     8    8    9 ar
     9    9   10 ar
    10   10   11 ar
    11    6   11 ar
    12    3   12 1
    13   13   14 1
    14   14   15 2
    15   15   16 1
    16   16   17 ar
    17   16   18 ar
    18   15   19 1
    19   19   20 1
    20   20   21 1
    21   20   22 1
    22   13   22 1
    23   22   23 1
    24   23   24 am
    25   24   25 1
    26   24   26 2
    27   13   12 1
    28    1   27 1
    29    1   28 1
    30    1   29 1
    31    2   30 1
    32    2   31 1
    33    3   32 1
    34    4   33 1
    35    4   34 1
    36    5   35 1
    37    5   36 1
    38    7   37 1
    39    8   38 1
    40    9   39 1
    41   10   40 1
    42   11   41 1
    43   13   42 1
    44   14   43 1
    45   19   44 1
    46   19   45 1
    47   20   46 1
    48   21   47 1
    49   21   48 1
    50   21   49 1
    51   22   50 1
    52   23   51 1
    53   25   52 1
    54   25   53 1
    55   25   54 1
@<TRIPOS>SUBSTRUCTURE
1 LIG11 1
@<TRIPOS>COMMENT
129821 CHEMBL81286
PLANTSproteinTorsions
3
593 259.6382
841 218.1511
2683 128.1405
PLANTSmolcadARTstart hb
PLANTSmolcadARTstart HB
LINES
33.4062 -12.2023 65.7945 34.0201 -12.863 63.9839 0 255 0 5
PLANTSmolcadARTstart HBCH
LINES
32.5649 -14.2623 66.1222 31.4287 -14.6973 64.634 255 0 0 5
32.5649 -14.2623 66.1222 33.5706 -16.23 65.5806 255 0 0 5
32.5649 -14.2623 66.1222 33.9645 -14.8609 67.3978 255 0 0 5
PLANTSmolcadARTstart HB-CHO
LINES
PLANTSmolcadARTend
PLANTSmolcadARTstart HB_WATER
LINES
PLANTSmolcadARTend

PLANTSmolcadARTend

@<TRIPOS>MOLECULE
129821 CHEMBL81286_entry_00001_conf_17
54 55 1
SMALL
NO_CHARGES


@<TRIPOS>ATOM
      1 C          26.6641   -9.7557   63.6919 C.3       1 LIG11       0.0000
      2 C          28.0660  -10.2241   63.3077 C.3       1 LIG11       0.0000
      3 C          29.1210  -10.0292   64.4184 C.3       1 LIG11       0.0000
      4 C          29.1543   -8.5263   64.8242 C.3       1 LIG11       0.0000
      5 C          29.5362   -7.5852   63.6738 C.3       1 LIG11       0.0000
      6 C          31.0359   -7.4472   63.4843 C.ar      1 LIG11       0.0000
      7 C          31.8798   -8.5669   63.5119 C.ar      1 LIG11       0.0000
      8 C          33.2540   -8.4322   63.2853 C.ar      1 LIG11       0.0000
      9 C          33.8065   -7.1753   63.0489 C.ar      1 LIG11       0.0000
     10 C          32.9883   -6.0491   63.0636 C.ar      1 LIG11       0.0000
     11 C          31.6131   -6.1837   63.2811 C.ar      1 LIG11       0.0000
     12 O          28.9040  -10.8055   65.6054 O.3       1 LIG11       0.0000
     13 C          29.7296  -10.6183   66.7654 C.3       1 LIG11       0.0000
     14 C          31.0751  -11.1610   66.3694 C.2       1 LIG11       0.0000
     15 C          31.4170  -12.4704   66.5327 C.2       1 LIG11       0.0000
     16 C          32.7525  -13.0065   66.1733 C.2       1 LIG11       0.0000
     17 O          32.7335  -14.3690   66.0843 O.co2     1 LIG11       0.0000
     18 O          33.7544  -12.3698   65.9445 O.co2     1 LIG11       0.0000
     19 C          30.3979  -13.4300   67.0788 C.3       1 LIG11       0.0000
     20 C          29.5686  -12.8225   68.2254 C.3       1 LIG11       0.0000
     21 N          28.3613  -13.6336   68.4704 N.4       1 LIG11       0.0000
     22 C          29.2607  -11.2837   68.1029 C.3       1 LIG11       0.0000
     23 N          29.8810  -10.6165   69.2830 N.am      1 LIG11       0.0000
     24 C          29.9420   -9.2552   69.4480 C.2       1 LIG11       0.0000
     25 C          30.5540   -8.8096   70.7567 C.3       1 LIG11       0.0000
     26 O          29.5040   -8.4592   68.6253 O.2       1 LIG11       0.0000
     27 H          25.9952   -9.9237   62.8739 H         1 LIG11       0.0000
     28 H          26.6881   -8.7115   63.9242 H         1 LIG11       0.0000
     29 H          26.3268  -10.3035   64.5468 H         1 LIG11       0.0000
     30 H          28.3798   -9.6737   62.4454 H         1 LIG11       0.0000
     31 H          28.0009  -11.2763   63.1244 H         1 LIG11       0.0000
     32 H          30.0454  -10.3679   63.9993 H         1 LIG11       0.0000
     33 H          29.8686   -8.4048   65.6115 H         1 LIG11       0.0000
     34 H          28.1629   -8.2624   65.1282 H         1 LIG11       0.0000
     35 H          29.1291   -6.6169   63.8777 H         1 LIG11       0.0000
     36 H          29.1403   -8.0074   62.7738 H         1 LIG11       0.0000
     37 H          31.4829   -9.5005   63.7015 H         1 LIG11       0.0000
     38 H          33.8607   -9.2671   63.2933 H         1 LIG11       0.0000
     39 H          34.8172   -7.0796   62.8638 H         1 LIG11       0.0000
     40 H          33.3971   -5.1133   62.9139 H         1 LIG11       0.0000
     41 H          31.0148   -5.3429   63.2924 H         1 LIG11       0.0000
     42 H          29.7065   -9.5772   67.0117 H         1 LIG11       0.0000
     43 H          31.7675  -10.5160   65.9575 H         1 LIG11       0.0000
     44 H          30.9057  -14.2976   67.4452 H         1 LIG11       0.0000
     45 H          29.7235  -13.6740   66.2846 H         1 LIG11       0.0000
     46 H          30.1961  -12.8663   69.0910 H         1 LIG11       0.0000
     47 H          27.6038  -13.0285   68.7871 H         1 LIG11       0.0000
     48 H          28.5605  -14.3320   69.1865 H         1 LIG11       0.0000
     49 H          28.0848  -14.1011   67.6071 H         1 LIG11       0.0000
     50 H          28.1979  -11.1611   68.0852 H         1 LIG11       0.0000
     51 H          30.2699  -11.1861   69.9856 H         1 LIG11       0.0000
     52 H          30.8668   -9.6673   71.3146 H         1 LIG11       0.0000
     53 H          29.8287   -8.2619   71.3214 H         1 LIG11       0.0000
     54 H          31.3997   -8.1840   70.5604 H         1 LIG11       0.0000
@<TRIPOS>BOND
     1    1    2 1
     2    2    3 1
     3    3    4 1
     4    4    5 1
     5    5    6 1
     6    6    7 ar
     7    7    8 ar
     8    8    9 ar
     9    9   10 ar
    10   10   11 ar
    11    6   11 ar
    12    3   12 1
    13   13   14 1
    14   14   15 2
    15   15   16 1
    16   16   17 ar
    17   16   18 ar
    18   15   19 1
    19   19   20 1
    20   20   21 1
    21   20   22 1
    22   13   22 1
    23   22   23 1
    24   23   24 am
    25   24   25 1
    26   24   26 2
    27   13   12 1
    28    1   27 1
    29    1   28 1
    30    1   29 1
    31    2   30 1
    32    2   31 1
    33    3   32 1
    34    4   33 1
    35    4   34 1
    36    5   35 1
    37    5   36 1
    38    7   37 1
    39    8   38 1
    40    9   39 1
    41   10   40 1
    42   11   41 1
    43   13   42 1
    44   14   43 1
    45   19   44 1
    46   19   45 1
    47   20   46 1
    48   21   47 1
    49   21   48 1
    50   21   49 1
    51   22   50 1
    52   23   51 1
    53   25   52 1
    54   25   53 1
    55   25   54 1
@<TRIPOS>SUBSTRUCTURE
1 LIG11 1
@<TRIPOS>COMMENT
129821 CHEMBL81286
PLANTSproteinTorsions
3
593 311.2970
841 242.7533
2683 127.8850
PLANTSmolcadARTstart hb
PLANTSmolcadARTstart HB
LINES
33.7544 -12.3698 65.9445 34.0194 -12.8663 63.9863 0 255 0 5
PLANTSmolcadARTstart HBCH
LINES
32.7335 -14.369 66.0843 31.4287 -14.6973 64.634 255 0 0 5
32.7335 -14.369 66.0843 33.5706 -16.23 65.5806 255 0 0 5
32.7335 -14.369 66.0843 33.9645 -14.8609 67.3978 255 0 0 5
33.7544 -12.3698 65.9445 35.9813 -12.8121 66.3855 255 0 0 5
PLANTSmolcadARTstart HB-CHO
LINES
PLANTSmolcadARTend
PLANTSmolcadARTstart HB_WATER
LINES
PLANTSmolcadARTend

PLANTSmolcadARTend

@<TRIPOS>MOLECULE
129821 CHEMBL81286_entry_00001_conf_18
54 55 1
SMALL
NO_CHARGES


@<TRIPOS>ATOM
      1 C          27.5098  -11.3596   63.9989 C.3       1 LIG11       0.0000
      2 C          28.1969  -10.0006   64.1139 C.3       1 LIG11       0.0000
      3 C          29.4240   -9.9933   65.0513 C.3       1 LIG11       0.0000
      4 C          29.9048   -8.5246   65.2413 C.3       1 LIG11       0.0000
      5 C          30.2753   -7.8222   63.9281 C.3       1 LIG11       0.0000
      6 C          31.6819   -8.1394   63.4542 C.ar      1 LIG11       0.0000
      7 C          32.5180   -7.1409   62.9340 C.ar      1 LIG11       0.0000
      8 C          33.8302   -7.4366   62.5479 C.ar      1 LIG11       0.0000
      9 C          34.3176   -8.7371   62.6568 C.ar      1 LIG11       0.0000
     10 C          33.4848   -9.7480   63.1288 C.ar      1 LIG11       0.0000
     11 C          32.1760   -9.4517   63.5234 C.ar      1 LIG11       0.0000
     12 O          29.1994  -10.5592   66.3506 O.3       1 LIG11       0.0000
     13 C          30.2067  -10.4766   67.3707 C.3       1 LIG11       0.0000
     14 C          31.4443  -11.0461   66.7338 C.2       1 LIG11       0.0000
     15 C          31.7437  -12.3755   66.7677 C.2       1 LIG11       0.0000
     16 C          32.9776  -12.9403   66.1688 C.2       1 LIG11       0.0000
     17 O          32.8784  -14.2929   66.0094 O.co2     1 LIG11       0.0000
     18 O          33.9603  -12.3305   65.8167 O.co2     1 LIG11       0.0000
     19 C          30.7787  -13.3264   67.4177 C.3       1 LIG11       0.0000
     20 C          30.1725  -12.7590   68.7145 C.3       1 LIG11       0.0000
     21 N          28.9814  -13.5357   69.1062 N.4       1 LIG11       0.0000
     22 C          29.9242  -11.2046   68.7278 C.3       1 LIG11       0.0000
     23 N          30.7557  -10.6367   69.8272 N.am      1 LIG11       0.0000
     24 C          32.0973  -10.8849   69.9785 C.2       1 LIG11       0.0000
     25 C          32.7460  -10.1435   71.1254 C.3       1 LIG11       0.0000
     26 O          32.7335  -11.6152   69.2275 O.2       1 LIG11       0.0000
     27 H          26.6740  -11.2816   63.3354 H         1 LIG11       0.0000
     28 H          27.1705  -11.6707   64.9648 H         1 LIG11       0.0000
     29 H          28.2034  -12.0787   63.6159 H         1 LIG11       0.0000
     30 H          27.4848   -9.2942   64.4866 H         1 LIG11       0.0000
     31 H          28.5531   -9.7507   63.1364 H         1 LIG11       0.0000
     32 H          30.1545  -10.6120   64.5732 H         1 LIG11       0.0000
     33 H          30.7663   -8.5306   65.8759 H         1 LIG11       0.0000
     34 H          29.0878   -7.9807   65.6672 H         1 LIG11       0.0000
     35 H          30.1963   -6.7652   64.0743 H         1 LIG11       0.0000
     36 H          29.6002   -8.1767   63.1774 H         1 LIG11       0.0000
     37 H          32.1617   -6.1775   62.8347 H         1 LIG11       0.0000
     38 H          34.4391   -6.6884   62.1811 H         1 LIG11       0.0000
     39 H          35.2912   -8.9501   62.3890 H         1 LIG11       0.0000
     40 H          33.8337  -10.7175   63.1876 H         1 LIG11       0.0000
     41 H          31.5653  -10.2079   63.8700 H         1 LIG11       0.0000
     42 H          30.2737   -9.4527   67.6742 H         1 LIG11       0.0000
     43 H          32.0931  -10.4045   66.2516 H         1 LIG11       0.0000
     44 H          31.2955  -14.2343   67.6493 H         1 LIG11       0.0000
     45 H          29.9759  -13.4941   66.7305 H         1 LIG11       0.0000
     46 H          30.9265  -12.8808   69.4639 H         1 LIG11       0.0000
     47 H          28.1967  -12.9018   69.2572 H         1 LIG11       0.0000
     48 H          29.1765  -14.0463   69.9673 H         1 LIG11       0.0000
     49 H          28.7473  -14.1961   68.3650 H         1 LIG11       0.0000
     50 H          28.8794  -11.0396   68.8885 H         1 LIG11       0.0000
     51 H          30.3165  -10.0488   70.4836 H         1 LIG11       0.0000
     52 H          32.0061   -9.5701   71.6435 H         1 LIG11       0.0000
     53 H          33.5022   -9.4891   70.7447 H         1 LIG11       0.0000
     54 H          33.1890  -10.8465   71.7995 H         1 LIG11       0.0000
@<TRIPOS>BOND
     1    1    2 1
     2    2    3 1
     3    3    4 1
     4    4    5 1
     5    5    6 1
     6    6    7 ar
     7    7    8 ar
     8    8    9 ar
     9    9   10 ar
    10   10   11 ar
    11    6   11 ar
    12    3   12 1
    13   13   14 1
    14   14   15 2
    15   15   16 1
    16   16   17 ar
    17   16   18 ar
    18   15   19 1
    19   19   20 1
    20   20   21 1
    21   20   22 1
    22   13   22 1
    23   22   23 1
    24   23   24 am
    25   24   25 1
    26   24   26 2
    27   13   12 1
    28    1   27 1
    29    1   28 1
    30    1   29 1
    31    2   30 1
    32    2   31 1
    33    3   32 1
    34    4   33 1
    35    4   34 1
    36    5   35 1
    37    5   36 1
    38    7   37 1
    39    8   38 1
    40    9   39 1
    41   10   40 1
    42   11   41 1
    43   13   42 1
    44   14   43 1
    45   19   44 1
    46   19   45 1
    47   20   46 1
    48   21   47 1
    49   21   48 1
    50   21   49 1
    51   22   50 1
    52   23   51 1
    53   25   52 1
    54   25   53 1
    55   25   54 1
@<TRIPOS>SUBSTRUCTURE
1 LIG11 1
@<TRIPOS>COMMENT
129821 CHEMBL81286
PLANTSproteinTorsions
3
593 155.9937
841 250.5206
2683 133.1177
PLANTSmolcadARTstart hb
PLANTSmolcadARTstart HB
LINES
33.9603 -12.3305 65.8167 34.0323 -12.8019 63.9343 0 255 0 5
PLANTSmolcadARTstart HBCH
LINES
32.8784 -14.2929 66.0094 31.4287 -14.6973 64.634 255 0 0 5
32.8784 -14.2929 66.0094 33.5706 -16.23 65.5806 255 0 0 5
32.8784 -14.2929 66.0094 33.9645 -14.8609 67.3978 255 0 0 5
33.9603 -12.3305 65.8167 35.9813 -12.8121 66.3855 255 0 0 5
PLANTSmolcadARTstart HB-CHO
LINES
PLANTSmolcadARTend
PLANTSmolcadARTstart HB_WATER
LINES
PLANTSmolcadARTend

PLANTSmolcadARTend

@<TRIPOS>MOLECULE
129821 CHEMBL81286_entry_00001_conf_19
54 55 1
SMALL
NO_CHARGES


@<TRIPOS>ATOM
      1 C          26.5525   -8.5037   63.4181 C.3       1 LIG11       0.0000
      2 C          27.2245   -9.7375   64.0169 C.3       1 LIG11       0.0000
      3 C          28.5728  -10.1017   63.3581 C.3       1 LIG11       0.0000
      4 C          29.3830   -8.7951   63.1116 C.3       1 LIG11       0.0000
      5 C          30.6998   -9.0192   62.3561 C.3       1 LIG11       0.0000
      6 C          31.7221   -7.9227   62.5943 C.ar      1 LIG11       0.0000
      7 C          31.3539   -6.5696   62.5888 C.ar      1 LIG11       0.0000
      8 C          32.2960   -5.5711   62.8601 C.ar      1 LIG11       0.0000
      9 C          33.6222   -5.9095   63.1198 C.ar      1 LIG11       0.0000
     10 C          34.0124   -7.2454   63.0838 C.ar      1 LIG11       0.0000
     11 C          33.0695   -8.2448   62.8216 C.ar      1 LIG11       0.0000
     12 O          29.3965  -10.9993   64.1161 O.3       1 LIG11       0.0000
     13 C          29.7760  -10.6845   65.4648 C.3       1 LIG11       0.0000
     14 C          31.0061  -11.5112   65.7195 C.2       1 LIG11       0.0000
     15 C          30.9492  -12.7853   66.2007 C.2       1 LIG11       0.0000
     16 C          32.1589  -13.5958   66.4835 C.2       1 LIG11       0.0000
     17 O          31.9818  -14.8984   66.1141 O.co2     1 LIG11       0.0000
     18 O          33.2046  -13.2046   66.9474 O.co2     1 LIG11       0.0000
     19 C          29.6074  -13.4183   66.4386 C.3       1 LIG11       0.0000
     20 C          28.5933  -12.4391   67.0582 C.3       1 LIG11       0.0000
     21 N          27.2230  -12.9687   66.9264 N.4       1 LIG11       0.0000
     22 C          28.7204  -10.9408   66.5925 C.3       1 LIG11       0.0000
     23 N          29.0200  -10.1279   67.8058 N.am      1 LIG11       0.0000
     24 C          29.1679   -8.7632   67.7952 C.2       1 LIG11       0.0000
     25 C          29.3979   -8.1475   69.1568 C.3       1 LIG11       0.0000
     26 O          29.0835   -8.0870   66.7765 O.2       1 LIG11       0.0000
     27 H          25.6291   -8.3187   63.9260 H         1 LIG11       0.0000
     28 H          26.3606   -8.6711   62.3789 H         1 LIG11       0.0000
     29 H          27.1970   -7.6570   63.5298 H         1 LIG11       0.0000
     30 H          26.5605  -10.5692   63.9060 H         1 LIG11       0.0000
     31 H          27.4326   -9.5094   65.0414 H         1 LIG11       0.0000
     32 H          28.3213  -10.6128   62.4523 H         1 LIG11       0.0000
     33 H          29.6084   -8.3535   64.0597 H         1 LIG11       0.0000
     34 H          28.7755   -8.1611   62.5001 H         1 LIG11       0.0000
     35 H          30.4871   -9.0634   61.3084 H         1 LIG11       0.0000
     36 H          31.1231   -9.9320   62.7202 H         1 LIG11       0.0000
     37 H          30.3773   -6.3072   62.3824 H         1 LIG11       0.0000
     38 H          32.0073   -4.5803   62.8678 H         1 LIG11       0.0000
     39 H          34.3121   -5.1735   63.3378 H         1 LIG11       0.0000
     40 H          34.9988   -7.4987   63.2509 H         1 LIG11       0.0000
     41 H          33.3684   -9.2322   62.7949 H         1 LIG11       0.0000
     42 H          29.9128   -9.6247   65.5213 H         1 LIG11       0.0000
     43 H          31.9306  -11.0973   65.5219 H         1 LIG11       0.0000
     44 H          29.7326  -14.2480   67.1026 H         1 LIG11       0.0000
     45 H          29.2217  -13.7276   65.4897 H         1 LIG11       0.0000
     46 H          28.8435  -12.3821   68.0970 H         1 LIG11       0.0000
     47 H          26.8912  -13.2837   67.8380 H         1 LIG11       0.0000
     48 H          27.2230  -13.7534   66.2748 H         1 LIG11       0.0000
     49 H          26.6074  -12.2352   66.5753 H         1 LIG11       0.0000
     50 H          27.7940  -10.6576   66.1383 H         1 LIG11       0.0000
     51 H          29.1174  -10.5977   68.6655 H         1 LIG11       0.0000
     52 H          29.4373   -8.9203   69.8957 H         1 LIG11       0.0000
     53 H          28.5962   -7.4766   69.3848 H         1 LIG11       0.0000
     54 H          30.3230   -7.6097   69.1534 H         1 LIG11       0.0000
@<TRIPOS>BOND
     1    1    2 1
     2    2    3 1
     3    3    4 1
     4    4    5 1
     5    5    6 1
     6    6    7 ar
     7    7    8 ar
     8    8    9 ar
     9    9   10 ar
    10   10   11 ar
    11    6   11 ar
    12    3   12 1
    13   13   14 1
    14   14   15 2
    15   15   16 1
    16   16   17 ar
    17   16   18 ar
    18   15   19 1
    19   19   20 1
    20   20   21 1
    21   20   22 1
    22   13   22 1
    23   22   23 1
    24   23   24 am
    25   24   25 1
    26   24   26 2
    27   13   12 1
    28    1   27 1
    29    1   28 1
    30    1   29 1
    31    2   30 1
    32    2   31 1
    33    3   32 1
    34    4   33 1
    35    4   34 1
    36    5   35 1
    37    5   36 1
    38    7   37 1
    39    8   38 1
    40    9   39 1
    41   10   40 1
    42   11   41 1
    43   13   42 1
    44   14   43 1
    45   19   44 1
    46   19   45 1
    47   20   46 1
    48   21   47 1
    49   21   48 1
    50   21   49 1
    51   22   50 1
    52   23   51 1
    53   25   52 1
    54   25   53 1
    55   25   54 1
@<TRIPOS>SUBSTRUCTURE
1 LIG11 1
@<TRIPOS>COMMENT
129821 CHEMBL81286
PLANTSproteinTorsions
3
593 23.5959
841 247.6270
2683 93.4306
PLANTSmolcadARTstart hb
PLANTSmolcadARTstart HB
LINES
27.223 -13.7534 66.2748 26.952 -15.333 64.878 0 255 0 5
29.0835 -8.08701 66.7765 29.245 -5.8475 66.5261 0 255 0 5
PLANTSmolcadARTstart HBCH
LINES
31.9818 -14.8984 66.1141 31.4287 -14.6973 64.634 255 0 0 5
31.9818 -14.8984 66.1141 33.5706 -16.23 65.5806 255 0 0 5
33.2046 -13.2046 66.9474 33.9645 -14.8609 67.3978 255 0 0 5
PLANTSmolcadARTstart HB-CHO
LINES
PLANTSmolcadARTend
PLANTSmolcadARTstart HB_WATER
LINES
PLANTSmolcadARTend

PLANTSmolcadARTend

@<TRIPOS>MOLECULE
129821 CHEMBL81286_entry_00001_conf_20
54 55 1
SMALL
NO_CHARGES


@<TRIPOS>ATOM
      1 C          26.5018   -8.2839   65.9375 C.3       1 LIG11       0.0000
      2 C          27.2597   -9.5790   66.2216 C.3       1 LIG11       0.0000
      3 C          28.1183  -10.0780   65.0390 C.3       1 LIG11       0.0000
      4 C          28.9268   -8.8791   64.4616 C.3       1 LIG11       0.0000
      5 C          29.8785   -9.2685   63.3224 C.3       1 LIG11       0.0000
      6 C          30.6802   -8.0975   62.7839 C.ar      1 LIG11       0.0000
      7 C          30.9235   -6.9597   63.5666 C.ar      1 LIG11       0.0000
      8 C          31.7069   -5.9088   63.0766 C.ar      1 LIG11       0.0000
      9 C          32.2401   -5.9713   61.7910 C.ar      1 LIG11       0.0000
     10 C          31.9695   -7.0741   60.9855 C.ar      1 LIG11       0.0000
     11 C          31.1940   -8.1290   61.4778 C.ar      1 LIG11       0.0000
     12 O          29.0447  -11.1254   65.3602 O.3       1 LIG11       0.0000
     13 C          30.1145  -10.8986   66.2910 C.3       1 LIG11       0.0000
     14 C          30.9095  -12.1750   66.2793 C.2       1 LIG11       0.0000
     15 C          30.6277  -13.2245   67.1022 C.2       1 LIG11       0.0000
     16 C          31.4262  -14.4744   67.1181 C.2       1 LIG11       0.0000
     17 O          32.4118  -14.4465   66.1734 O.co2     1 LIG11       0.0000
     18 O          31.2914  -15.4143   67.8665 O.co2     1 LIG11       0.0000
     19 C          29.4444  -13.1344   68.0239 C.3       1 LIG11       0.0000
     20 C          29.3000  -11.7423   68.6661 C.3       1 LIG11       0.0000
     21 N          27.9533  -11.5826   69.2462 N.4       1 LIG11       0.0000
     22 C          29.7277  -10.5268   67.7620 C.3       1 LIG11       0.0000
     23 N          30.8520   -9.8370   68.4568 N.am      1 LIG11       0.0000
     24 C          30.8462   -9.5188   69.7921 C.2       1 LIG11       0.0000
     25 C          32.1254   -8.8856   70.2907 C.3       1 LIG11       0.0000
     26 O          29.9017   -9.7594   70.5352 O.2       1 LIG11       0.0000
     27 H          25.9340   -8.0063   66.8008 H         1 LIG11       0.0000
     28 H          25.8415   -8.4316   65.1087 H         1 LIG11       0.0000
     29 H          27.1990   -7.5066   65.7040 H         1 LIG11       0.0000
     30 H          26.5470  -10.3394   66.4641 H         1 LIG11       0.0000
     31 H          27.9331   -9.3728   67.0271 H         1 LIG11       0.0000
     32 H          27.4260  -10.4907   64.3353 H         1 LIG11       0.0000
     33 H          29.5049   -8.4492   65.2527 H         1 LIG11       0.0000
     34 H          28.2166   -8.1902   64.0541 H         1 LIG11       0.0000
     35 H          29.2999   -9.6807   62.5223 H         1 LIG11       0.0000
     36 H          30.5769   -9.9749   63.7201 H         1 LIG11       0.0000
     37 H          30.5204   -6.8966   64.5146 H         1 LIG11       0.0000
     38 H          31.8903   -5.0844   63.6696 H         1 LIG11       0.0000
     39 H          32.8328   -5.2039   61.4376 H         1 LIG11       0.0000
     40 H          32.3416   -7.1132   60.0237 H         1 LIG11       0.0000
     41 H          30.9969   -8.9414   60.8727 H         1 LIG11       0.0000
     42 H          30.6409  -10.0244   65.9689 H         1 LIG11       0.0000
     43 H          31.7003  -12.2598   65.6216 H         1 LIG11       0.0000
     44 H          29.5593  -13.8604   68.8014 H         1 LIG11       0.0000
     45 H          28.5651  -13.3160   67.4418 H         1 LIG11       0.0000
     46 H          30.0222  -11.7112   69.4550 H         1 LIG11       0.0000
     47 H          27.9797  -11.8212   70.2375 H         1 LIG11       0.0000
     48 H          27.3003  -12.2008   68.7649 H         1 LIG11       0.0000
     49 H          27.6488  -10.6152   69.1373 H         1 LIG11       0.0000
     50 H          28.8768   -9.8888   67.6442 H         1 LIG11       0.0000
     51 H          31.6456   -9.5955   67.9266 H         1 LIG11       0.0000
     52 H          32.8073   -8.7689   69.4746 H         1 LIG11       0.0000
     53 H          32.5664   -9.5127   71.0371 H         1 LIG11       0.0000
     54 H          31.9076   -7.9270   70.7135 H         1 LIG11       0.0000
@<TRIPOS>BOND
     1    1    2 1
     2    2    3 1
     3    3    4 1
     4    4    5 1
     5    5    6 1
     6    6    7 ar
     7    7    8 ar
     8    8    9 ar
     9    9   10 ar
    10   10   11 ar
    11    6   11 ar
    12    3   12 1
    13   13   14 1
    14   14   15 2
    15   15   16 1
    16   16   17 ar
    17   16   18 ar
    18   15   19 1
    19   19   20 1
    20   20   21 1
    21   20   22 1
    22   13   22 1
    23   22   23 1
    24   23   24 am
    25   24   25 1
    26   24   26 2
    27   13   12 1
    28    1   27 1
    29    1   28 1
    30    1   29 1
    31    2   30 1
    32    2   31 1
    33    3   32 1
    34    4   33 1
    35    4   34 1
    36    5   35 1
    37    5   36 1
    38    7   37 1
    39    8   38 1
    40    9   39 1
    41   10   40 1
    42   11   41 1
    43   13   42 1
    44   14   43 1
    45   19   44 1
    46   19   45 1
    47   20   46 1
    48   21   47 1
    49   21   48 1
    50   21   49 1
    51   22   50 1
    52   23   51 1
    53   25   52 1
    54   25   53 1
    55   25   54 1
@<TRIPOS>SUBSTRUCTURE
1 LIG11 1
@<TRIPOS>COMMENT
129821 CHEMBL81286
PLANTSproteinTorsions
3
593 91.8281
841 329.8257
2683 268.9463
PLANTSmolcadARTstart hb
PLANTSmolcadARTstart HB
LINES
31.6456 -9.59552 67.9266 32.877 -8.317 66.861 0 255 0 5
PLANTSmolcadARTstart HBCH
LINES
32.4118 -14.4465 66.1734 31.4287 -14.6973 64.634 255 0 0 5
32.4118 -14.4465 66.1734 33.5706 -16.23 65.5806 255 0 0 5
32.4118 -14.4465 66.1734 33.9645 -14.8609 67.3978 255 0 0 5
PLANTSmolcadARTstart HB-CHO
LINES
PLANTSmolcadARTend
PLANTSmolcadARTstart HB_WATER
LINES
PLANTSmolcadARTend

PLANTSmolcadARTend

@<TRIPOS>MOLECULE
129821 CHEMBL81286_entry_00001_conf_21
54 55 1
SMALL
NO_CHARGES


@<TRIPOS>ATOM
      1 C          27.2260  -11.4739   63.8769 C.3       1 LIG11       0.0000
      2 C          27.7323  -10.0642   64.1747 C.3       1 LIG11       0.0000
      3 C          29.0161  -10.0247   65.0321 C.3       1 LIG11       0.0000
      4 C          29.3297   -8.5454   65.4029 C.3       1 LIG11       0.0000
      5 C          29.1099   -7.5600   64.2471 C.3       1 LIG11       0.0000
      6 C          30.2487   -7.5488   63.2436 C.ar      1 LIG11       0.0000
      7 C          30.5728   -6.3907   62.5222 C.ar      1 LIG11       0.0000
      8 C          31.6570   -6.3792   61.6377 C.ar      1 LIG11       0.0000
      9 C          32.4189   -7.5298   61.4464 C.ar      1 LIG11       0.0000
     10 C          32.0815   -8.6998   62.1212 C.ar      1 LIG11       0.0000
     11 C          31.0034   -8.7098   63.0124 C.ar      1 LIG11       0.0000
     12 O          28.9586  -10.7851   66.2475 O.3       1 LIG11       0.0000
     13 C          29.9711  -10.6357   67.2548 C.3       1 LIG11       0.0000
     14 C          31.2365  -11.1169   66.6000 C.2       1 LIG11       0.0000
     15 C          31.6273  -12.4226   66.6256 C.2       1 LIG11       0.0000
     16 C          32.8892  -12.8995   66.0089 C.2       1 LIG11       0.0000
     17 O          32.8787  -14.2545   65.8401 O.co2     1 LIG11       0.0000
     18 O          33.8250  -12.2229   65.6508 O.co2     1 LIG11       0.0000
     19 C          30.7388  -13.4394   67.2848 C.3       1 LIG11       0.0000
     20 C          30.1120  -12.9183   68.5913 C.3       1 LIG11       0.0000
     21 N          28.9825  -13.7762   68.9958 N.4       1 LIG11       0.0000
     22 C          29.7573  -11.3848   68.6130 C.3       1 LIG11       0.0000
     23 N          30.5621  -10.7635   69.7035 N.am      1 LIG11       0.0000
     24 C          30.7362   -9.4098   69.8498 C.2       1 LIG11       0.0000
     25 C          31.5332   -9.0091   71.0705 C.3       1 LIG11       0.0000
     26 O          30.2563   -8.5845   69.0811 O.2       1 LIG11       0.0000
     27 H          26.3387  -11.4158   63.2819 H         1 LIG11       0.0000
     28 H          27.0068  -11.9757   64.7961 H         1 LIG11       0.0000
     29 H          27.9778  -12.0177   63.3442 H         1 LIG11       0.0000
     30 H          26.9632   -9.5338   64.6963 H         1 LIG11       0.0000
     31 H          27.9756   -9.6178   63.2332 H         1 LIG11       0.0000
     32 H          29.7780  -10.4735   64.4295 H         1 LIG11       0.0000
     33 H          30.3529   -8.4836   65.7095 H         1 LIG11       0.0000
     34 H          28.6522   -8.2682   66.1833 H         1 LIG11       0.0000
     35 H          29.0065   -6.5761   64.6546 H         1 LIG11       0.0000
     36 H          28.2304   -7.8744   63.7251 H         1 LIG11       0.0000
     37 H          30.0053   -5.5374   62.6450 H         1 LIG11       0.0000
     38 H          31.8932   -5.5152   61.1251 H         1 LIG11       0.0000
     39 H          33.2293   -7.5149   60.8077 H         1 LIG11       0.0000
     40 H          32.6277   -9.5612   61.9636 H         1 LIG11       0.0000
     41 H          30.7595   -9.5823   63.5065 H         1 LIG11       0.0000
     42 H          29.9713   -9.6104   67.5608 H         1 LIG11       0.0000
     43 H          31.8332  -10.4310   66.1116 H         1 LIG11       0.0000
     44 H          31.3199  -14.3100   67.5067 H         1 LIG11       0.0000
     45 H          29.9404  -13.6604   66.6076 H         1 LIG11       0.0000
     46 H          30.8824  -12.9896   69.3305 H         1 LIG11       0.0000
     47 H          28.4015  -13.2779   69.6699 H         1 LIG11       0.0000
     48 H          29.3405  -14.6311   69.4217 H         1 LIG11       0.0000
     49 H          28.4246  -14.0130   68.1754 H         1 LIG11       0.0000
     50 H          28.7058  -11.2927   68.7877 H         1 LIG11       0.0000
     51 H          30.9941  -11.3594   70.3573 H         1 LIG11       0.0000
     52 H          31.8524   -9.8871   71.5921 H         1 LIG11       0.0000
     53 H          30.9220   -8.4133   71.7157 H         1 LIG11       0.0000
     54 H          32.3893   -8.4432   70.7675 H         1 LIG11       0.0000
@<TRIPOS>BOND
     1    1    2 1
     2    2    3 1
     3    3    4 1
     4    4    5 1
     5    5    6 1
     6    6    7 ar
     7    7    8 ar
     8    8    9 ar
     9    9   10 ar
    10   10   11 ar
    11    6   11 ar
    12    3   12 1
    13   13   14 1
    14   14   15 2
    15   15   16 1
    16   16   17 ar
    17   16   18 ar
    18   15   19 1
    19   19   20 1
    20   20   21 1
    21   20   22 1
    22   13   22 1
    23   22   23 1
    24   23   24 am
    25   24   25 1
    26   24   26 2
    27   13   12 1
    28    1   27 1
    29    1   28 1
    30    1   29 1
    31    2   30 1
    32    2   31 1
    33    3   32 1
    34    4   33 1
    35    4   34 1
    36    5   35 1
    37    5   36 1
    38    7   37 1
    39    8   38 1
    40    9   39 1
    41   10   40 1
    42   11   41 1
    43   13   42 1
    44   14   43 1
    45   19   44 1
    46   19   45 1
    47   20   46 1
    48   21   47 1
    49   21   48 1
    50   21   49 1
    51   22   50 1
    52   23   51 1
    53   25   52 1
    54   25   53 1
    55   25   54 1
@<TRIPOS>SUBSTRUCTURE
1 LIG11 1
@<TRIPOS>COMMENT
129821 CHEMBL81286
PLANTSproteinTorsions
3
593 255.7026
841 50.1822
2683 132.8230
PLANTSmolcadARTstart hb
PLANTSmolcadARTstart HB
LINES
33.825 -12.2229 65.6508 34.0317 -12.8054 63.9373 0 255 0 5
PLANTSmolcadARTstart HBCH
LINES
32.8787 -14.2545 65.8401 31.4287 -14.6973 64.634 255 0 0 5
32.8787 -14.2545 65.8401 33.5706 -16.23 65.5806 255 0 0 5
32.8787 -14.2545 65.8401 33.9645 -14.8609 67.3978 255 0 0 5
33.825 -12.2229 65.6508 35.9813 -12.8121 66.3855 255 0 0 5
PLANTSmolcadARTstart HB-CHO
LINES
PLANTSmolcadARTend
PLANTSmolcadARTstart HB_WATER
LINES
PLANTSmolcadARTend

PLANTSmolcadARTend

@<TRIPOS>MOLECULE
129821 CHEMBL81286_entry_00001_conf_22
54 55 1
SMALL
NO_CHARGES


@<TRIPOS>ATOM
      1 C          26.9236   -9.1768   63.7615 C.3       1 LIG11       0.0000
      2 C          28.1315  -10.0253   63.3701 C.3       1 LIG11       0.0000
      3 C          29.2381  -10.0789   64.4459 C.3       1 LIG11       0.0000
      4 C          29.6330   -8.6242   64.8361 C.3       1 LIG11       0.0000
      5 C          30.1031   -7.7732   63.6486 C.3       1 LIG11       0.0000
      6 C          31.5818   -7.9319   63.3451 C.ar      1 LIG11       0.0000
      7 C          32.1275   -9.1802   63.0126 C.ar      1 LIG11       0.0000
      8 C          33.4824   -9.3039   62.6854 C.ar      1 LIG11       0.0000
      9 C          34.3143   -8.1867   62.7061 C.ar      1 LIG11       0.0000
     10 C          33.7969   -6.9490   63.0783 C.ar      1 LIG11       0.0000
     11 C          32.4408   -6.8226   63.3968 C.ar      1 LIG11       0.0000
     12 O          28.8848  -10.7809   65.6464 O.3       1 LIG11       0.0000
     13 C          29.6941  -10.6679   66.8272 C.3       1 LIG11       0.0000
     14 C          31.0448  -11.1863   66.4169 C.2       1 LIG11       0.0000
     15 C          31.3839  -12.5038   66.5023 C.2       1 LIG11       0.0000
     16 C          32.7241  -13.0179   66.1287 C.2       1 LIG11       0.0000
     17 O          32.7152  -14.3767   65.9937 O.co2     1 LIG11       0.0000
     18 O          33.7220  -12.3667   65.9243 O.co2     1 LIG11       0.0000
     19 C          30.3568  -13.4945   66.9728 C.3       1 LIG11       0.0000
     20 C          29.5118  -12.9592   68.1435 C.3       1 LIG11       0.0000
     21 N          28.3009  -13.7826   68.3202 N.4       1 LIG11       0.0000
     22 C          29.2062  -11.4154   68.1136 C.3       1 LIG11       0.0000
     23 N          29.8101  -10.8244   69.3419 N.am      1 LIG11       0.0000
     24 C          29.6961  -11.3778   70.5929 C.2       1 LIG11       0.0000
     25 C          30.4514  -10.6403   71.6753 C.3       1 LIG11       0.0000
     26 O          29.0682  -12.4063   70.8171 O.2       1 LIG11       0.0000
     27 H          26.2061   -9.1903   62.9680 H         1 LIG11       0.0000
     28 H          27.2381   -8.1699   63.9408 H         1 LIG11       0.0000
     29 H          26.4805   -9.5755   64.6500 H         1 LIG11       0.0000
     30 H          28.5525   -9.6181   62.4746 H         1 LIG11       0.0000
     31 H          27.7771  -11.0266   63.2410 H         1 LIG11       0.0000
     32 H          30.0444  -10.6244   64.0018 H         1 LIG11       0.0000
     33 H          30.4256   -8.6702   65.5534 H         1 LIG11       0.0000
     34 H          28.7543   -8.1560   65.2279 H         1 LIG11       0.0000
     35 H          29.9103   -6.7444   63.8706 H         1 LIG11       0.0000
     36 H          29.5647   -8.1071   62.7863 H         1 LIG11       0.0000
     37 H          31.5233  -10.0168   63.0093 H         1 LIG11       0.0000
     38 H          33.8669  -10.2264   62.4277 H         1 LIG11       0.0000
     39 H          35.3092   -8.2760   62.4468 H         1 LIG11       0.0000
     40 H          34.4149   -6.1235   63.1192 H         1 LIG11       0.0000
     41 H          32.0666   -5.9015   63.6737 H         1 LIG11       0.0000
     42 H          29.6679   -9.6443   67.1381 H         1 LIG11       0.0000
     43 H          31.7431  -10.5176   66.0560 H         1 LIG11       0.0000
     44 H          30.8592  -14.3841   67.2911 H         1 LIG11       0.0000
     45 H          29.6937  -13.6874   66.1555 H         1 LIG11       0.0000
     46 H          30.1270  -13.0580   69.0134 H         1 LIG11       0.0000
     47 H          28.0776  -14.2516   67.4424 H         1 LIG11       0.0000
     48 H          27.5208  -13.1855   68.5947 H         1 LIG11       0.0000
     49 H          28.4668  -14.4800   69.0458 H         1 LIG11       0.0000
     50 H          28.1438  -11.2906   68.0887 H         1 LIG11       0.0000
     51 H          30.3208   -9.9877   69.2503 H         1 LIG11       0.0000
     52 H          30.9224   -9.7759   71.2559 H         1 LIG11       0.0000
     53 H          31.1962  -11.2850   72.0931 H         1 LIG11       0.0000
     54 H          29.7700  -10.3380   72.4430 H         1 LIG11       0.0000
@<TRIPOS>BOND
     1    1    2 1
     2    2    3 1
     3    3    4 1
     4    4    5 1
     5    5    6 1
     6    6    7 ar
     7    7    8 ar
     8    8    9 ar
     9    9   10 ar
    10   10   11 ar
    11    6   11 ar
    12    3   12 1
    13   13   14 1
    14   14   15 2
    15   15   16 1
    16   16   17 ar
    17   16   18 ar
    18   15   19 1
    19   19   20 1
    20   20   21 1
    21   20   22 1
    22   13   22 1
    23   22   23 1
    24   23   24 am
    25   24   25 1
    26   24   26 2
    27   13   12 1
    28    1   27 1
    29    1   28 1
    30    1   29 1
    31    2   30 1
    32    2   31 1
    33    3   32 1
    34    4   33 1
    35    4   34 1
    36    5   35 1
    37    5   36 1
    38    7   37 1
    39    8   38 1
    40    9   39 1
    41   10   40 1
    42   11   41 1
    43   13   42 1
    44   14   43 1
    45   19   44 1
    46   19   45 1
    47   20   46 1
    48   21   47 1
    49   21   48 1
    50   21   49 1
    51   22   50 1
    52   23   51 1
    53   25   52 1
    54   25   53 1
    55   25   54 1
@<TRIPOS>SUBSTRUCTURE
1 LIG11 1
@<TRIPOS>COMMENT
129821 CHEMBL81286
PLANTSproteinTorsions
3
593 222.6314
841 211.3501
2683 126.5068
PLANTSmolcadARTstart hb
PLANTSmolcadARTstart HB
LINES
33.722 -12.3667 65.9243 34.0153 -12.8838 63.9991 0 255 0 5
PLANTSmolcadARTstart HBCH
LINES
32.7152 -14.3767 65.9937 31.4287 -14.6973 64.634 255 0 0 5
32.7152 -14.3767 65.9937 33.5706 -16.23 65.5806 255 0 0 5
32.7152 -14.3767 65.9937 33.9645 -14.8609 67.3978 255 0 0 5
33.722 -12.3667 65.9243 35.9813 -12.8121 66.3855 255 0 0 5
PLANTSmolcadARTstart HB-CHO
LINES
PLANTSmolcadARTend
PLANTSmolcadARTstart HB_WATER
LINES
PLANTSmolcadARTend

PLANTSmolcadARTend

@<TRIPOS>MOLECULE
129821 CHEMBL81286_entry_00001_conf_23
54 55 1
SMALL
NO_CHARGES


@<TRIPOS>ATOM
      1 C          26.2977   -7.9921   66.0178 C.3       1 LIG11       0.0000
      2 C          27.3614   -9.0058   66.4340 C.3       1 LIG11       0.0000
      3 C          27.8876   -9.8782   65.2735 C.3       1 LIG11       0.0000
      4 C          28.5686   -8.9571   64.2189 C.3       1 LIG11       0.0000
      5 C          29.7667   -8.1711   64.7684 C.3       1 LIG11       0.0000
      6 C          30.5997   -7.5118   63.6843 C.ar      1 LIG11       0.0000
      7 C          30.0381   -6.5805   62.7990 C.ar      1 LIG11       0.0000
      8 C          30.8284   -5.9420   61.8368 C.ar      1 LIG11       0.0000
      9 C          32.1851   -6.2405   61.7324 C.ar      1 LIG11       0.0000
     10 C          32.7472   -7.1964   62.5741 C.ar      1 LIG11       0.0000
     11 C          31.9601   -7.8286   63.5422 C.ar      1 LIG11       0.0000
     12 O          28.8299  -10.8911   65.6538 O.3       1 LIG11       0.0000
     13 C          29.9263  -10.5819   66.5280 C.3       1 LIG11       0.0000
     14 C          30.7824  -11.8182   66.5208 C.2       1 LIG11       0.0000
     15 C          30.5889  -12.8518   67.3881 C.2       1 LIG11       0.0000
     16 C          31.4483  -14.0606   67.4075 C.2       1 LIG11       0.0000
     17 O          32.3583  -14.0397   66.3895 O.co2     1 LIG11       0.0000
     18 O          31.4171  -14.9626   68.2119 O.co2     1 LIG11       0.0000
     19 C          29.4436  -12.7878   68.3586 C.3       1 LIG11       0.0000
     20 C          29.2582  -11.3835   68.9626 C.3       1 LIG11       0.0000
     21 N          27.9316  -11.2695   69.5972 N.4       1 LIG11       0.0000
     22 C          29.5855  -10.1799   68.0024 C.3       1 LIG11       0.0000
     23 N          30.7033   -9.4138   68.6241 N.am      1 LIG11       0.0000
     24 C          30.6226   -8.8022   69.8504 C.2       1 LIG11       0.0000
     25 C          31.9047   -8.1440   70.3076 C.3       1 LIG11       0.0000
     26 O          29.6109   -8.8163   70.5421 O.2       1 LIG11       0.0000
     27 H          25.9863   -7.4302   66.8734 H         1 LIG11       0.0000
     28 H          25.4562   -8.5076   65.6041 H         1 LIG11       0.0000
     29 H          26.7052   -7.3285   65.2841 H         1 LIG11       0.0000
     30 H          26.9387   -9.6515   67.1752 H         1 LIG11       0.0000
     31 H          28.1952   -8.4454   66.8021 H         1 LIG11       0.0000
     32 H          27.0309  -10.3903   64.8878 H         1 LIG11       0.0000
     33 H          27.8417   -8.2584   63.8609 H         1 LIG11       0.0000
     34 H          28.9410   -9.5925   63.4426 H         1 LIG11       0.0000
     35 H          30.3927   -8.8446   65.3155 H         1 LIG11       0.0000
     36 H          29.3767   -7.3904   65.3876 H         1 LIG11       0.0000
     37 H          29.0308   -6.3636   62.8578 H         1 LIG11       0.0000
     38 H          30.4046   -5.2473   61.2021 H         1 LIG11       0.0000
     39 H          32.7706   -5.7555   61.0345 H         1 LIG11       0.0000
     40 H          33.7463   -7.4389   62.4836 H         1 LIG11       0.0000
     41 H          32.3849   -8.5373   64.1603 H         1 LIG11       0.0000
     42 H          30.3943   -9.6947   66.1553 H         1 LIG11       0.0000
     43 H          31.5473  -11.8869   65.8313 H         1 LIG11       0.0000
     44 H          29.6278  -13.4810   69.1526 H         1 LIG11       0.0000
     45 H          28.5500  -13.0310   67.8226 H         1 LIG11       0.0000
     46 H          30.0114  -11.2912   69.7170 H         1 LIG11       0.0000
     47 H          27.6864  -10.2845   69.6977 H         1 LIG11       0.0000
     48 H          27.9558  -11.7094   70.5170 H         1 LIG11       0.0000
     49 H          27.2353  -11.7356   69.0156 H         1 LIG11       0.0000
     50 H          28.6998   -9.5879   67.9030 H         1 LIG11       0.0000
     51 H          31.5493   -9.3425   68.1257 H         1 LIG11       0.0000
     52 H          32.6516   -8.2525   69.5492 H         1 LIG11       0.0000
     53 H          32.2424   -8.6094   71.2099 H         1 LIG11       0.0000
     54 H          31.7274   -7.1042   70.4874 H         1 LIG11       0.0000
@<TRIPOS>BOND
     1    1    2 1
     2    2    3 1
     3    3    4 1
     4    4    5 1
     5    5    6 1
     6    6    7 ar
     7    7    8 ar
     8    8    9 ar
     9    9   10 ar
    10   10   11 ar
    11    6   11 ar
    12    3   12 1
    13   13   14 1
    14   14   15 2
    15   15   16 1
    16   16   17 ar
    17   16   18 ar
    18   15   19 1
    19   19   20 1
    20   20   21 1
    21   20   22 1
    22   13   22 1
    23   22   23 1
    24   23   24 am
    25   24   25 1
    26   24   26 2
    27   13   12 1
    28    1   27 1
    29    1   28 1
    30    1   29 1
    31    2   30 1
    32    2   31 1
    33    3   32 1
    34    4   33 1
    35    4   34 1
    36    5   35 1
    37    5   36 1
    38    7   37 1
    39    8   38 1
    40    9   39 1
    41   10   40 1
    42   11   41 1
    43   13   42 1
    44   14   43 1
    45   19   44 1
    46   19   45 1
    47   20   46 1
    48   21   47 1
    49   21   48 1
    50   21   49 1
    51   22   50 1
    52   23   51 1
    53   25   52 1
    54   25   53 1
    55   25   54 1
@<TRIPOS>SUBSTRUCTURE
1 LIG11 1
@<TRIPOS>COMMENT
129821 CHEMBL81286
PLANTSproteinTorsions
3
593 289.9659
841 78.5578
2683 138.1917
PLANTSmolcadARTstart hb
PLANTSmolcadARTstart HB
LINES
31.5493 -9.34252 68.1257 32.877 -8.317 66.861 0 255 0 5
PLANTSmolcadARTstart HBCH
LINES
32.3583 -14.0397 66.3895 31.4287 -14.6973 64.634 255 0 0 5
32.3583 -14.0397 66.3895 33.9645 -14.8609 67.3978 255 0 0 5
PLANTSmolcadARTstart HB-CHO
LINES
PLANTSmolcadARTend
PLANTSmolcadARTstart HB_WATER
LINES
PLANTSmolcadARTend

PLANTSmolcadARTend

@<TRIPOS>MOLECULE
129821 CHEMBL81286_entry_00001_conf_24
54 55 1
SMALL
NO_CHARGES


@<TRIPOS>ATOM
      1 C          30.9961  -12.8033   66.3482 C.3       1 LIG11       0.0000
      2 C          31.0836  -11.4993   65.5581 C.3       1 LIG11       0.0000
      3 C          29.9408  -10.5046   65.8569 C.3       1 LIG11       0.0000
      4 C          30.1893   -9.1946   65.0529 C.3       1 LIG11       0.0000
      5 C          30.2212   -9.4008   63.5325 C.3       1 LIG11       0.0000
      6 C          30.7070   -8.1805   62.7718 C.ar      1 LIG11       0.0000
      7 C          30.2810   -6.8897   63.1166 C.ar      1 LIG11       0.0000
      8 C          30.7756   -5.7690   62.4402 C.ar      1 LIG11       0.0000
      9 C          31.6860   -5.9240   61.3971 C.ar      1 LIG11       0.0000
     10 C          32.0834   -7.2018   61.0134 C.ar      1 LIG11       0.0000
     11 C          31.5965   -8.3222   61.6948 C.ar      1 LIG11       0.0000
     12 O          28.6243  -10.9784   65.5391 O.3       1 LIG11       0.0000
     13 C          27.5232  -10.7369   66.4287 C.3       1 LIG11       0.0000
     14 C          27.6749   -9.2996   66.8443 C.2       1 LIG11       0.0000
     15 C          28.4214   -8.9199   67.9198 C.2       1 LIG11       0.0000
     16 C          28.5506   -7.5075   68.3542 C.2       1 LIG11       0.0000
     17 O          29.5082   -7.3697   69.3179 O.co2     1 LIG11       0.0000
     18 O          27.9406   -6.5558   67.9254 O.co2     1 LIG11       0.0000
     19 C          29.1710   -9.9655   68.6959 C.3       1 LIG11       0.0000
     20 C          28.3545  -11.2568   68.8893 C.3       1 LIG11       0.0000
     21 N          29.2359  -12.3625   69.3088 N.4       1 LIG11       0.0000
     22 C          27.4039  -11.6472   67.6970 C.3       1 LIG11       0.0000
     23 N          26.0111  -11.6503   68.2289 N.am      1 LIG11       0.0000
     24 C          25.2424  -12.7807   68.3539 C.2       1 LIG11       0.0000
     25 C          23.8875  -12.5502   68.9842 C.3       1 LIG11       0.0000
     26 O          25.6286  -13.8952   68.0208 O.2       1 LIG11       0.0000
     27 H          31.8189  -13.4350   66.0860 H         1 LIG11       0.0000
     28 H          30.0771  -13.2998   66.1162 H         1 LIG11       0.0000
     29 H          31.0308  -12.5886   67.3958 H         1 LIG11       0.0000
     30 H          31.0593  -11.7359   64.5149 H         1 LIG11       0.0000
     31 H          31.9946  -11.0208   65.8514 H         1 LIG11       0.0000
     32 H          29.9612  -10.3533   66.9160 H         1 LIG11       0.0000
     33 H          31.1290   -8.7841   65.3579 H         1 LIG11       0.0000
     34 H          29.3701   -8.5389   65.2624 H         1 LIG11       0.0000
     35 H          29.2316   -9.6362   63.2007 H         1 LIG11       0.0000
     36 H          30.9119  -10.1937   63.3344 H         1 LIG11       0.0000
     37 H          29.5951   -6.7649   63.8776 H         1 LIG11       0.0000
     38 H          30.4648   -4.8240   62.7151 H         1 LIG11       0.0000
     39 H          32.0639   -5.0956   60.9113 H         1 LIG11       0.0000
     40 H          32.7383   -7.3227   60.2250 H         1 LIG11       0.0000
     41 H          31.8951   -9.2656   61.4019 H         1 LIG11       0.0000
     42 H          26.6240  -10.9711   65.8981 H         1 LIG11       0.0000
     43 H          27.1944   -8.5713   66.2931 H         1 LIG11       0.0000
     44 H          29.4166   -9.5677   69.6584 H         1 LIG11       0.0000
     45 H          30.0486  -10.2171   68.1378 H         1 LIG11       0.0000
     46 H          27.6636  -11.0467   69.6789 H         1 LIG11       0.0000
     47 H          30.2022  -12.0369   69.3323 H         1 LIG11       0.0000
     48 H          29.1529  -13.1335   68.6463 H         1 LIG11       0.0000
     49 H          28.9620  -12.6818   70.2381 H         1 LIG11       0.0000
     50 H          27.7002  -12.6121   67.3422 H         1 LIG11       0.0000
     51 H          25.6197  -10.7909   68.5070 H         1 LIG11       0.0000
     52 H          23.7632  -11.5079   69.1914 H         1 LIG11       0.0000
     53 H          23.8192  -13.1058   69.8960 H         1 LIG11       0.0000
     54 H          23.1213  -12.8739   68.3110 H         1 LIG11       0.0000
@<TRIPOS>BOND
     1    1    2 1
     2    2    3 1
     3    3    4 1
     4    4    5 1
     5    5    6 1
     6    6    7 ar
     7    7    8 ar
     8    8    9 ar
     9    9   10 ar
    10   10   11 ar
    11    6   11 ar
    12    3   12 1
    13   13   14 1
    14   14   15 2
    15   15   16 1
    16   16   17 ar
    17   16   18 ar
    18   15   19 1
    19   19   20 1
    20   20   21 1
    21   20   22 1
    22   13   22 1
    23   22   23 1
    24   23   24 am
    25   24   25 1
    26   24   26 2
    27   13   12 1
    28    1   27 1
    29    1   28 1
    30    1   29 1
    31    2   30 1
    32    2   31 1
    33    3   32 1
    34    4   33 1
    35    4   34 1
    36    5   35 1
    37    5   36 1
    38    7   37 1
    39    8   38 1
    40    9   39 1
    41   10   40 1
    42   11   41 1
    43   13   42 1
    44   14   43 1
    45   19   44 1
    46   19   45 1
    47   20   46 1
    48   21   47 1
    49   21   48 1
    50   21   49 1
    51   22   50 1
    52   23   51 1
    53   25   52 1
    54   25   53 1
    55   25   54 1
@<TRIPOS>SUBSTRUCTURE
1 LIG11 1
@<TRIPOS>COMMENT
129821 CHEMBL81286
PLANTSproteinTorsions
3
593 243.4632
841 234.7456
2683 330.9851
PLANTSmolcadARTstart hb
PLANTSmolcadARTstart HB
LINES
25.6286 -13.8952 68.0208 25.1251 -15.0546 66.5599 0 255 0 5
PLANTSmolcadARTstart HBCH
LINES
29.5082 -7.36966 69.3179 30.5198 -5.53706 69.3868 255 0 0 5
27.9406 -6.55581 67.9254 29.245 -5.8475 66.5261 255 0 0 5
27.9406 -6.55581 67.9254 27.8673 -4.4679 67.7309 255 0 0 5
PLANTSmolcadARTstart HB-CHO
LINES
PLANTSmolcadARTend
PLANTSmolcadARTstart HB_WATER
LINES
PLANTSmolcadARTend

PLANTSmolcadARTend

@<TRIPOS>MOLECULE
129821 CHEMBL81286_entry_00001_conf_25
54 55 1
SMALL
NO_CHARGES


@<TRIPOS>ATOM
      1 C          31.3340  -12.0145   68.2538 C.3       1 LIG11       0.0000
      2 C          29.8725  -11.6375   68.0213 C.3       1 LIG11       0.0000
      3 C          29.2498  -12.2788   66.7621 C.3       1 LIG11       0.0000
      4 C          27.7685  -11.8150   66.6399 C.3       1 LIG11       0.0000
      5 C          26.9693  -11.9538   67.9427 C.3       1 LIG11       0.0000
      6 C          26.6891  -13.3961   68.3238 C.ar      1 LIG11       0.0000
      7 C          27.6951  -14.3718   68.2727 C.ar      1 LIG11       0.0000
      8 C          27.4368  -15.6869   68.6751 C.ar      1 LIG11       0.0000
      9 C          26.1653  -16.0496   69.1139 C.ar      1 LIG11       0.0000
     10 C          25.1447  -15.1029   69.1271 C.ar      1 LIG11       0.0000
     11 C          25.4042  -13.7859   68.7336 C.ar      1 LIG11       0.0000
     12 O          29.9159  -11.9685   65.5297 O.3       1 LIG11       0.0000
     13 C          30.6344  -10.7349   65.3746 C.3       1 LIG11       0.0000
     14 C          29.6217   -9.6625   65.6675 C.2       1 LIG11       0.0000
     15 C          28.8154   -9.1301   64.7060 C.2       1 LIG11       0.0000
     16 C          27.8360   -8.0506   64.9811 C.2       1 LIG11       0.0000
     17 O          28.0153   -7.5229   66.2278 O.co2     1 LIG11       0.0000
     18 O          26.9896   -7.6272   64.2288 O.co2     1 LIG11       0.0000
     19 C          28.8951   -9.6667   63.3048 C.3       1 LIG11       0.0000
     20 C          30.3424   -9.9501   62.8617 C.3       1 LIG11       0.0000
     21 N          30.3525  -10.8075   61.6616 N.4       1 LIG11       0.0000
     22 C          31.3131  -10.4614   63.9904 C.3       1 LIG11       0.0000
     23 N          32.4078   -9.4571   64.1161 N.am      1 LIG11       0.0000
     24 C          33.1852   -9.0371   63.0656 C.2       1 LIG11       0.0000
     25 C          34.1858   -7.9598   63.4183 C.3       1 LIG11       0.0000
     26 O          33.0598   -9.4661   61.9244 O.2       1 LIG11       0.0000
     27 H          31.6900  -11.5327   69.1403 H         1 LIG11       0.0000
     28 H          31.9211  -11.6997   67.4165 H         1 LIG11       0.0000
     29 H          31.4150  -13.0754   68.3674 H         1 LIG11       0.0000
     30 H          29.8113  -10.5738   67.9223 H         1 LIG11       0.0000
     31 H          29.3209  -12.0060   68.8609 H         1 LIG11       0.0000
     32 H          29.3453  -13.3355   66.9007 H         1 LIG11       0.0000
     33 H          27.2908  -12.4053   65.8861 H         1 LIG11       0.0000
     34 H          27.7860  -10.7740   66.3932 H         1 LIG11       0.0000
     35 H          26.0350  -11.4462   67.8237 H         1 LIG11       0.0000
     36 H          27.5622  -11.5284   68.7253 H         1 LIG11       0.0000
     37 H          28.6363  -14.1172   67.9345 H         1 LIG11       0.0000
     38 H          28.1909  -16.3908   68.6466 H         1 LIG11       0.0000
     39 H          25.9809  -17.0153   69.4277 H         1 LIG11       0.0000
     40 H          24.1951  -15.3732   69.4276 H         1 LIG11       0.0000
     41 H          24.6409  -13.0915   68.7447 H         1 LIG11       0.0000
     42 H          31.4756  -10.7677   66.0352 H         1 LIG11       0.0000
     43 H          29.5337   -9.3156   66.6355 H         1 LIG11       0.0000
     44 H          28.4666   -8.9483   62.6376 H         1 LIG11       0.0000
     45 H          28.3612  -10.5938   63.2815 H         1 LIG11       0.0000
     46 H          30.7596   -8.9975   62.6096 H         1 LIG11       0.0000
     47 H          30.5753  -10.2426   60.8421 H         1 LIG11       0.0000
     48 H          29.4341  -11.2343   61.5410 H         1 LIG11       0.0000
     49 H          31.0552  -11.5385   61.7720 H         1 LIG11       0.0000
     50 H          31.6816  -11.4222   63.6972 H         1 LIG11       0.0000
     51 H          32.5834   -9.0724   65.0052 H         1 LIG11       0.0000
     52 H          34.1220   -7.7423   64.4639 H         1 LIG11       0.0000
     53 H          33.9703   -7.0752   62.8562 H         1 LIG11       0.0000
     54 H          35.1731   -8.2996   63.1842 H         1 LIG11       0.0000
@<TRIPOS>BOND
     1    1    2 1
     2    2    3 1
     3    3    4 1
     4    4    5 1
     5    5    6 1
     6    6    7 ar
     7    7    8 ar
     8    8    9 ar
     9    9   10 ar
    10   10   11 ar
    11    6   11 ar
    12    3   12 1
    13   13   14 1
    14   14   15 2
    15   15   16 1
    16   16   17 ar
    17   16   18 ar
    18   15   19 1
    19   19   20 1
    20   20   21 1
    21   20   22 1
    22   13   22 1
    23   22   23 1
    24   23   24 am
    25   24   25 1
    26   24   26 2
    27   13   12 1
    28    1   27 1
    29    1   28 1
    30    1   29 1
    31    2   30 1
    32    2   31 1
    33    3   32 1
    34    4   33 1
    35    4   34 1
    36    5   35 1
    37    5   36 1
    38    7   37 1
    39    8   38 1
    40    9   39 1
    41   10   40 1
    42   11   41 1
    43   13   42 1
    44   14   43 1
    45   19   44 1
    46   19   45 1
    47   20   46 1
    48   21   47 1
    49   21   48 1
    50   21   49 1
    51   22   50 1
    52   23   51 1
    53   25   52 1
    54   25   53 1
    55   25   54 1
@<TRIPOS>SUBSTRUCTURE
1 LIG11 1
@<TRIPOS>COMMENT
129821 CHEMBL81286
PLANTSproteinTorsions
3
593 84.6299
841 191.3901
2683 143.0055
PLANTSmolcadARTstart hb
PLANTSmolcadARTstart HB
LINES
32.5834 -9.07236 65.0052 32.877 -8.317 66.861 0 255 0 5
PLANTSmolcadARTstart HBCH
LINES
29.4341 -11.2343 61.541 28.134 -12.517 60.849 255 0 0 5
31.0552 -11.5385 61.772 32.402 -12.505 61.364 255 0 0 5
28.0153 -7.52285 66.2278 29.245 -5.8475 66.5261 255 0 0 5
PLANTSmolcadARTstart HB-CHO
LINES
PLANTSmolcadARTend
PLANTSmolcadARTstart HB_WATER
LINES
PLANTSmolcadARTend

PLANTSmolcadARTend

