@<TRIPOS>MOLECULE
129821 CHEMBL81286_entry_00001_conf_01_protein
8 5 3
SMALL
NO_CHARGES


@<TRIPOS>ATOM
      1 HZ1        30.5025   -4.5632   68.1473 H        72 LYS148      0.0000
      2 NZ         31.1930   -4.8230   68.9360 N.4      72 LYS148      1.0000
      3 HZ2        32.1477   -5.0878   68.5060 H        72 LYS148      0.0000
      4 HZ3        30.8039   -5.6624   69.4931 H        72 LYS148      0.0000
      5 HG         33.5494   -5.3671   56.9750 H       102 SER178      0.0000
      6 OG         33.3150   -5.7370   57.8180 O.3     102 SER178      0.0000
      7 HH         33.9869  -12.9910   64.0655 H       333 TYR409      0.0000
      8 OH         33.8000  -13.3860   63.2220 O.3     333 TYR409      0.0000
@<TRIPOS>BOND
     1    2    1 1
     2    2    3 1
     3    2    4 1
     4    6    5 1
     5    8    7 1
@<TRIPOS>SUBSTRUCTURE
72 LYS148 1
102 SER178 5
333 TYR409 7
@<TRIPOS>COMMENT
@<TRIPOS>MOLECULE
129821 CHEMBL81286_entry_00001_conf_02_protein
8 5 3
SMALL
NO_CHARGES


@<TRIPOS>ATOM
      1 HZ1        30.5066   -4.5615   68.1443 H        72 LYS148      0.0000
      2 NZ         31.1930   -4.8230   68.9360 N.4      72 LYS148      1.0000
      3 HZ2        32.1486   -5.0912   68.5102 H        72 LYS148      0.0000
      4 HZ3        30.7988   -5.6608   69.4920 H        72 LYS148      0.0000
      5 HG         33.0156   -6.4748   58.3362 H       102 SER178      0.0000
      6 OG         33.3150   -5.7370   57.8180 O.3     102 SER178      0.0000
      7 HH         34.0045  -12.9276   64.0285 H       333 TYR409      0.0000
      8 OH         33.8000  -13.3860   63.2220 O.3     333 TYR409      0.0000
@<TRIPOS>BOND
     1    2    1 1
     2    2    3 1
     3    2    4 1
     4    6    5 1
     5    8    7 1
@<TRIPOS>SUBSTRUCTURE
72 LYS148 1
102 SER178 5
333 TYR409 7
@<TRIPOS>COMMENT
@<TRIPOS>MOLECULE
129821 CHEMBL81286_entry_00001_conf_03_protein
8 5 3
SMALL
NO_CHARGES


@<TRIPOS>ATOM
      1 HZ1        30.5589   -5.5591   69.4076 H        72 LYS148      0.0000
      2 NZ         31.1930   -4.8230   68.9360 N.4      72 LYS148      1.0000
      3 HZ2        30.7378   -4.4934   68.0138 H        72 LYS148      0.0000
      4 HZ3        32.1575   -5.2608   68.7250 H        72 LYS148      0.0000
      5 HG         33.3197   -6.5555   58.3002 H       102 SER178      0.0000
      6 OG         33.3150   -5.7370   57.8180 O.3     102 SER178      0.0000
      7 HH         34.0167  -12.8780   63.9949 H       333 TYR409      0.0000
      8 OH         33.8000  -13.3860   63.2220 O.3     333 TYR409      0.0000
@<TRIPOS>BOND
     1    2    1 1
     2    2    3 1
     3    2    4 1
     4    6    5 1
     5    8    7 1
@<TRIPOS>SUBSTRUCTURE
72 LYS148 1
102 SER178 5
333 TYR409 7
@<TRIPOS>COMMENT
@<TRIPOS>MOLECULE
129821 CHEMBL81286_entry_00001_conf_04_protein
8 5 3
SMALL
NO_CHARGES


@<TRIPOS>ATOM
      1 HZ1        31.1747   -4.4788   67.9125 H        72 LYS148      0.0000
      2 NZ         31.1930   -4.8230   68.9360 N.4      72 LYS148      1.0000
      3 HZ2        32.0153   -5.5102   69.0701 H        72 LYS148      0.0000
      4 HZ3        30.2640   -5.3244   69.1638 H        72 LYS148      0.0000
      5 HG         33.8859   -5.5893   57.0732 H       102 SER178      0.0000
      6 OG         33.3150   -5.7370   57.8180 O.3     102 SER178      0.0000
      7 HH         33.6045  -13.7932   64.0577 H       333 TYR409      0.0000
      8 OH         33.8000  -13.3860   63.2220 O.3     333 TYR409      0.0000
@<TRIPOS>BOND
     1    2    1 1
     2    2    3 1
     3    2    4 1
     4    6    5 1
     5    8    7 1
@<TRIPOS>SUBSTRUCTURE
72 LYS148 1
102 SER178 5
333 TYR409 7
@<TRIPOS>COMMENT
@<TRIPOS>MOLECULE
129821 CHEMBL81286_entry_00001_conf_05_protein
8 5 3
SMALL
NO_CHARGES


@<TRIPOS>ATOM
      1 HZ1        30.1554   -5.1223   68.9263 H        72 LYS148      0.0000
      2 NZ         31.1930   -4.8230   68.9360 N.4      72 LYS148      1.0000
      3 HZ2        31.4972   -4.5460   67.9374 H        72 LYS148      0.0000
      4 HZ3        31.8016   -5.6451   69.2827 H        72 LYS148      0.0000
      5 HG         33.5153   -6.5668   58.2348 H       102 SER178      0.0000
      6 OG         33.3150   -5.7370   57.8180 O.3     102 SER178      0.0000
      7 HH         33.3303  -13.2075   62.4158 H       333 TYR409      0.0000
      8 OH         33.8000  -13.3860   63.2220 O.3     333 TYR409      0.0000
@<TRIPOS>BOND
     1    2    1 1
     2    2    3 1
     3    2    4 1
     4    6    5 1
     5    8    7 1
@<TRIPOS>SUBSTRUCTURE
72 LYS148 1
102 SER178 5
333 TYR409 7
@<TRIPOS>COMMENT
@<TRIPOS>MOLECULE
129821 CHEMBL81286_entry_00001_conf_06_protein
8 5 3
SMALL
NO_CHARGES


@<TRIPOS>ATOM
      1 HZ1        30.3540   -4.6450   68.2796 H        72 LYS148      0.0000
      2 NZ         31.1930   -4.8230   68.9360 N.4      72 LYS148      1.0000
      3 HZ2        32.0889   -4.9549   68.3475 H        72 LYS148      0.0000
      4 HZ3        31.0111   -5.7136   69.5193 H        72 LYS148      0.0000
      5 HG         32.6764   -6.2788   58.2664 H       102 SER178      0.0000
      6 OG         33.3150   -5.7370   57.8180 O.3     102 SER178      0.0000
      7 HH         33.4709  -13.9638   63.9005 H       333 TYR409      0.0000
      8 OH         33.8000  -13.3860   63.2220 O.3     333 TYR409      0.0000
@<TRIPOS>BOND
     1    2    1 1
     2    2    3 1
     3    2    4 1
     4    6    5 1
     5    8    7 1
@<TRIPOS>SUBSTRUCTURE
72 LYS148 1
102 SER178 5
333 TYR409 7
@<TRIPOS>COMMENT
@<TRIPOS>MOLECULE
129821 CHEMBL81286_entry_00001_conf_07_protein
8 5 3
SMALL
NO_CHARGES


@<TRIPOS>ATOM
      1 HZ1        31.4653   -4.5363   67.9310 H        72 LYS148      0.0000
      2 NZ         31.1930   -4.8230   68.9360 N.4      72 LYS148      1.0000
      3 HZ2        31.8269   -5.6338   69.2634 H        72 LYS148      0.0000
      4 HZ3        30.1617   -5.1433   68.9520 H        72 LYS148      0.0000
      5 HG         33.1128   -6.5090   58.3334 H       102 SER178      0.0000
      6 OG         33.3150   -5.7370   57.8180 O.3     102 SER178      0.0000
      7 HH         34.0203  -12.8621   63.9832 H       333 TYR409      0.0000
      8 OH         33.8000  -13.3860   63.2220 O.3     333 TYR409      0.0000
@<TRIPOS>BOND
     1    2    1 1
     2    2    3 1
     3    2    4 1
     4    6    5 1
     5    8    7 1
@<TRIPOS>SUBSTRUCTURE
72 LYS148 1
102 SER178 5
333 TYR409 7
@<TRIPOS>COMMENT
@<TRIPOS>MOLECULE
129821 CHEMBL81286_entry_00001_conf_08_protein
8 5 3
SMALL
NO_CHARGES


@<TRIPOS>ATOM
      1 HZ1        30.4375   -4.5941   68.1989 H        72 LYS148      0.0000
      2 NZ         31.1930   -4.8230   68.9360 N.4      72 LYS148      1.0000
      3 HZ2        32.1288   -5.0327   68.4393 H        72 LYS148      0.0000
      4 HZ3        30.8877   -5.6866   69.5082 H        72 LYS148      0.0000
      5 HG         33.1326   -6.5150   58.3318 H       102 SER178      0.0000
      6 OG         33.3150   -5.7370   57.8180 O.3     102 SER178      0.0000
      7 HH         34.0187  -12.8692   63.9885 H       333 TYR409      0.0000
      8 OH         33.8000  -13.3860   63.2220 O.3     333 TYR409      0.0000
@<TRIPOS>BOND
     1    2    1 1
     2    2    3 1
     3    2    4 1
     4    6    5 1
     5    8    7 1
@<TRIPOS>SUBSTRUCTURE
72 LYS148 1
102 SER178 5
333 TYR409 7
@<TRIPOS>COMMENT
@<TRIPOS>MOLECULE
129821 CHEMBL81286_entry_00001_conf_09_protein
8 5 3
SMALL
NO_CHARGES


@<TRIPOS>ATOM
      1 HZ1        30.5871   -4.5315   68.0908 H        72 LYS148      0.0000
      2 NZ         31.1930   -4.8230   68.9360 N.4      72 LYS148      1.0000
      3 HZ2        32.1604   -5.1542   68.5884 H        72 LYS148      0.0000
      4 HZ3        30.7065   -5.6277   69.4672 H        72 LYS148      0.0000
      5 HG         33.2483   -6.5434   58.3158 H       102 SER178      0.0000
      6 OG         33.3150   -5.7370   57.8180 O.3     102 SER178      0.0000
      7 HH         34.0228  -12.8507   63.9745 H       333 TYR409      0.0000
      8 OH         33.8000  -13.3860   63.2220 O.3     333 TYR409      0.0000
@<TRIPOS>BOND
     1    2    1 1
     2    2    3 1
     3    2    4 1
     4    6    5 1
     5    8    7 1
@<TRIPOS>SUBSTRUCTURE
72 LYS148 1
102 SER178 5
333 TYR409 7
@<TRIPOS>COMMENT
@<TRIPOS>MOLECULE
129821 CHEMBL81286_entry_00001_conf_10_protein
8 5 3
SMALL
NO_CHARGES


@<TRIPOS>ATOM
      1 HZ1        30.5523   -4.5436   68.1127 H        72 LYS148      0.0000
      2 NZ         31.1930   -4.8230   68.9360 N.4      72 LYS148      1.0000
      3 HZ2        32.1566   -5.1275   68.5550 H        72 LYS148      0.0000
      4 HZ3        30.7452   -5.6424   69.4787 H        72 LYS148      0.0000
      5 HG         33.2320   -6.5401   58.3187 H       102 SER178      0.0000
      6 OG         33.3150   -5.7370   57.8180 O.3     102 SER178      0.0000
      7 HH         33.9999  -12.9450   64.0393 H       333 TYR409      0.0000
      8 OH         33.8000  -13.3860   63.2220 O.3     333 TYR409      0.0000
@<TRIPOS>BOND
     1    2    1 1
     2    2    3 1
     3    2    4 1
     4    6    5 1
     5    8    7 1
@<TRIPOS>SUBSTRUCTURE
72 LYS148 1
102 SER178 5
333 TYR409 7
@<TRIPOS>COMMENT
@<TRIPOS>MOLECULE
129821 CHEMBL81286_entry_00001_conf_11_protein
8 5 3
SMALL
NO_CHARGES


@<TRIPOS>ATOM
      1 HZ1        30.4491   -4.5881   68.1891 H        72 LYS148      0.0000
      2 NZ         31.1930   -4.8230   68.9360 N.4      72 LYS148      1.0000
      3 HZ2        32.1328   -5.0428   68.4515 H        72 LYS148      0.0000
      4 HZ3        30.8721   -5.6825   69.5059 H        72 LYS148      0.0000
      5 HG         33.2983   -5.2811   56.9847 H       102 SER178      0.0000
      6 OG         33.3150   -5.7370   57.8180 O.3     102 SER178      0.0000
      7 HH         34.0253  -12.8387   63.9651 H       333 TYR409      0.0000
      8 OH         33.8000  -13.3860   63.2220 O.3     333 TYR409      0.0000
@<TRIPOS>BOND
     1    2    1 1
     2    2    3 1
     3    2    4 1
     4    6    5 1
     5    8    7 1
@<TRIPOS>SUBSTRUCTURE
72 LYS148 1
102 SER178 5
333 TYR409 7
@<TRIPOS>COMMENT
@<TRIPOS>MOLECULE
129821 CHEMBL81286_entry_00001_conf_12_protein
8 5 3
SMALL
NO_CHARGES


@<TRIPOS>ATOM
      1 HZ1        30.7814   -4.4861   67.9961 H        72 LYS148      0.0000
      2 NZ         31.1930   -4.8230   68.9360 N.4      72 LYS148      1.0000
      3 HZ2        32.1515   -5.2895   68.7628 H        72 LYS148      0.0000
      4 HZ3        30.5211   -5.5378   69.3876 H        72 LYS148      0.0000
      5 HG         33.1595   -6.5226   58.3291 H       102 SER178      0.0000
      6 OG         33.3150   -5.7370   57.8180 O.3     102 SER178      0.0000
      7 HH         33.9739  -13.0336   64.0869 H       333 TYR409      0.0000
      8 OH         33.8000  -13.3860   63.2220 O.3     333 TYR409      0.0000
@<TRIPOS>BOND
     1    2    1 1
     2    2    3 1
     3    2    4 1
     4    6    5 1
     5    8    7 1
@<TRIPOS>SUBSTRUCTURE
72 LYS148 1
102 SER178 5
333 TYR409 7
@<TRIPOS>COMMENT
@<TRIPOS>MOLECULE
129821 CHEMBL81286_entry_00001_conf_13_protein
8 5 3
SMALL
NO_CHARGES


@<TRIPOS>ATOM
      1 HZ1        30.4930   -4.5674   68.1543 H        72 LYS148      0.0000
      2 NZ         31.1930   -4.8230   68.9360 N.4      72 LYS148      1.0000
      3 HZ2        32.1455   -5.0800   68.4965 H        72 LYS148      0.0000
      4 HZ3        30.8155   -5.6661   69.4956 H        72 LYS148      0.0000
      5 HG         32.3922   -5.8949   57.9796 H       102 SER178      0.0000
      6 OG         33.3150   -5.7370   57.8180 O.3     102 SER178      0.0000
      7 HH         34.0238  -12.8456   63.9706 H       333 TYR409      0.0000
      8 OH         33.8000  -13.3860   63.2220 O.3     333 TYR409      0.0000
@<TRIPOS>BOND
     1    2    1 1
     2    2    3 1
     3    2    4 1
     4    6    5 1
     5    8    7 1
@<TRIPOS>SUBSTRUCTURE
72 LYS148 1
102 SER178 5
333 TYR409 7
@<TRIPOS>COMMENT
@<TRIPOS>MOLECULE
129821 CHEMBL81286_entry_00001_conf_14_protein
8 5 3
SMALL
NO_CHARGES


@<TRIPOS>ATOM
      1 HZ1        30.6105   -5.5855   69.4315 H        72 LYS148      0.0000
      2 NZ         31.1930   -4.8230   68.9360 N.4      72 LYS148      1.0000
      3 HZ2        30.6818   -4.5052   68.0394 H        72 LYS148      0.0000
      4 HZ3        32.1619   -5.2227   68.6755 H        72 LYS148      0.0000
      5 HG         32.3890   -5.5905   57.6646 H       102 SER178      0.0000
      6 OG         33.3150   -5.7370   57.8180 O.3     102 SER178      0.0000
      7 HH         34.0161  -12.8805   63.9967 H       333 TYR409      0.0000
      8 OH         33.8000  -13.3860   63.2220 O.3     333 TYR409      0.0000
@<TRIPOS>BOND
     1    2    1 1
     2    2    3 1
     3    2    4 1
     4    6    5 1
     5    8    7 1
@<TRIPOS>SUBSTRUCTURE
72 LYS148 1
102 SER178 5
333 TYR409 7
@<TRIPOS>COMMENT
@<TRIPOS>MOLECULE
129821 CHEMBL81286_entry_00001_conf_15_protein
8 5 3
SMALL
NO_CHARGES


@<TRIPOS>ATOM
      1 HZ1        30.6879   -4.5038   68.0364 H        72 LYS148      0.0000
      2 NZ         31.1930   -4.8230   68.9360 N.4      72 LYS148      1.0000
      3 HZ2        32.1616   -5.2270   68.6811 H        72 LYS148      0.0000
      4 HZ3        30.6045   -5.5826   69.4290 H        72 LYS148      0.0000
      5 HG         33.1932   -6.5312   58.3249 H       102 SER178      0.0000
      6 OG         33.3150   -5.7370   57.8180 O.3     102 SER178      0.0000
      7 HH         33.6359  -13.7465   64.0855 H       333 TYR409      0.0000
      8 OH         33.8000  -13.3860   63.2220 O.3     333 TYR409      0.0000
@<TRIPOS>BOND
     1    2    1 1
     2    2    3 1
     3    2    4 1
     4    6    5 1
     5    8    7 1
@<TRIPOS>SUBSTRUCTURE
72 LYS148 1
102 SER178 5
333 TYR409 7
@<TRIPOS>COMMENT
@<TRIPOS>MOLECULE
129821 CHEMBL81286_entry_00001_conf_16_protein
8 5 3
SMALL
NO_CHARGES


@<TRIPOS>ATOM
      1 HZ1        31.0600   -4.4706   67.9238 H        72 LYS148      0.0000
      2 NZ         31.1930   -4.8230   68.9360 N.4      72 LYS148      1.0000
      3 HZ2        32.0693   -5.4522   68.9860 H        72 LYS148      0.0000
      4 HZ3        30.3247   -5.3905   69.2366 H        72 LYS148      0.0000
      5 HG         32.7101   -5.2965   57.2326 H       102 SER178      0.0000
      6 OG         33.3150   -5.7370   57.8180 O.3     102 SER178      0.0000
      7 HH         34.0201  -12.8630   63.9839 H       333 TYR409      0.0000
      8 OH         33.8000  -13.3860   63.2220 O.3     333 TYR409      0.0000
@<TRIPOS>BOND
     1    2    1 1
     2    2    3 1
     3    2    4 1
     4    6    5 1
     5    8    7 1
@<TRIPOS>SUBSTRUCTURE
72 LYS148 1
102 SER178 5
333 TYR409 7
@<TRIPOS>COMMENT
@<TRIPOS>MOLECULE
129821 CHEMBL81286_entry_00001_conf_17_protein
8 5 3
SMALL
NO_CHARGES


@<TRIPOS>ATOM
      1 HZ1        31.8847   -4.7392   68.1108 H        72 LYS148      0.0000
      2 NZ         31.1930   -4.8230   68.9360 N.4      72 LYS148      1.0000
      3 HZ2        31.3878   -5.7367   69.4778 H        72 LYS148      0.0000
      4 HZ3        30.1815   -4.8374   68.5578 H        72 LYS148      0.0000
      5 HG         33.0512   -5.2478   57.0475 H       102 SER178      0.0000
      6 OG         33.3150   -5.7370   57.8180 O.3     102 SER178      0.0000
      7 HH         34.0194  -12.8663   63.9863 H       333 TYR409      0.0000
      8 OH         33.8000  -13.3860   63.2220 O.3     333 TYR409      0.0000
@<TRIPOS>BOND
     1    2    1 1
     2    2    3 1
     3    2    4 1
     4    6    5 1
     5    8    7 1
@<TRIPOS>SUBSTRUCTURE
72 LYS148 1
102 SER178 5
333 TYR409 7
@<TRIPOS>COMMENT
@<TRIPOS>MOLECULE
129821 CHEMBL81286_entry_00001_conf_18_protein
8 5 3
SMALL
NO_CHARGES


@<TRIPOS>ATOM
      1 HZ1        30.1941   -5.2194   69.0429 H        72 LYS148      0.0000
      2 NZ         31.1930   -4.8230   68.9360 N.4      72 LYS148      1.0000
      3 HZ2        31.3474   -4.5063   67.9151 H        72 LYS148      0.0000
      4 HZ3        31.9126   -5.5877   69.1884 H        72 LYS148      0.0000
      5 HG         33.1696   -5.2575   57.0109 H       102 SER178      0.0000
      6 OG         33.3150   -5.7370   57.8180 O.3     102 SER178      0.0000
      7 HH         34.0323  -12.8019   63.9343 H       333 TYR409      0.0000
      8 OH         33.8000  -13.3860   63.2220 O.3     333 TYR409      0.0000
@<TRIPOS>BOND
     1    2    1 1
     2    2    3 1
     3    2    4 1
     4    6    5 1
     5    8    7 1
@<TRIPOS>SUBSTRUCTURE
72 LYS148 1
102 SER178 5
333 TYR409 7
@<TRIPOS>COMMENT
@<TRIPOS>MOLECULE
129821 CHEMBL81286_entry_00001_conf_19_protein
8 5 3
SMALL
NO_CHARGES


@<TRIPOS>ATOM
      1 HZ1        32.0379   -5.4880   69.0375 H        72 LYS148      0.0000
      2 NZ         31.1930   -4.8230   68.9360 N.4      72 LYS148      1.0000
      3 HZ2        30.2864   -5.3507   69.1930 H        72 LYS148      0.0000
      4 HZ3        31.1298   -4.4746   67.9157 H        72 LYS148      0.0000
      5 HG         33.1252   -5.2525   57.0232 H       102 SER178      0.0000
      6 OG         33.3150   -5.7370   57.8180 O.3     102 SER178      0.0000
      7 HH         33.8521  -13.3499   64.1699 H       333 TYR409      0.0000
      8 OH         33.8000  -13.3860   63.2220 O.3     333 TYR409      0.0000
@<TRIPOS>BOND
     1    2    1 1
     2    2    3 1
     3    2    4 1
     4    6    5 1
     5    8    7 1
@<TRIPOS>SUBSTRUCTURE
72 LYS148 1
102 SER178 5
333 TYR409 7
@<TRIPOS>COMMENT
@<TRIPOS>MOLECULE
129821 CHEMBL81286_entry_00001_conf_20_protein
8 5 3
SMALL
NO_CHARGES


@<TRIPOS>ATOM
      1 HZ1        31.0280   -5.7165   69.5198 H        72 LYS148      0.0000
      2 NZ         31.1930   -4.8230   68.9360 N.4      72 LYS148      1.0000
      3 HZ2        30.3437   -4.6523   68.2910 H        72 LYS148      0.0000
      4 HZ3        32.0824   -4.9445   68.3355 H        72 LYS148      0.0000
      5 HG         34.1017   -5.9003   57.3112 H       102 SER178      0.0000
      6 OG         33.3150   -5.7370   57.8180 O.3     102 SER178      0.0000
      7 HH         33.3543  -13.1563   62.4151 H       333 TYR409      0.0000
      8 OH         33.8000  -13.3860   63.2220 O.3     333 TYR409      0.0000
@<TRIPOS>BOND
     1    2    1 1
     2    2    3 1
     3    2    4 1
     4    6    5 1
     5    8    7 1
@<TRIPOS>SUBSTRUCTURE
72 LYS148 1
102 SER178 5
333 TYR409 7
@<TRIPOS>COMMENT
@<TRIPOS>MOLECULE
129821 CHEMBL81286_entry_00001_conf_21_protein
8 5 3
SMALL
NO_CHARGES


@<TRIPOS>ATOM
      1 HZ1        30.9910   -4.4697   67.9356 H        72 LYS148      0.0000
      2 NZ         31.1930   -4.8230   68.9360 N.4      72 LYS148      1.0000
      3 HZ2        32.0963   -5.4150   68.9333 H        72 LYS148      0.0000
      4 HZ3        30.3666   -5.4287   69.2775 H        72 LYS148      0.0000
      5 HG         33.6325   -6.5568   58.1781 H       102 SER178      0.0000
      6 OG         33.3150   -5.7370   57.8180 O.3     102 SER178      0.0000
      7 HH         34.0317  -12.8054   63.9373 H       333 TYR409      0.0000
      8 OH         33.8000  -13.3860   63.2220 O.3     333 TYR409      0.0000
@<TRIPOS>BOND
     1    2    1 1
     2    2    3 1
     3    2    4 1
     4    6    5 1
     5    8    7 1
@<TRIPOS>SUBSTRUCTURE
72 LYS148 1
102 SER178 5
333 TYR409 7
@<TRIPOS>COMMENT
@<TRIPOS>MOLECULE
129821 CHEMBL81286_entry_00001_conf_22_protein
8 5 3
SMALL
NO_CHARGES


@<TRIPOS>ATOM
      1 HZ1        30.4721   -4.5769   68.1704 H        72 LYS148      0.0000
      2 NZ         31.1930   -4.8230   68.9360 N.4      72 LYS148      1.0000
      3 HZ2        32.1399   -5.0625   68.4753 H        72 LYS148      0.0000
      4 HZ3        30.8420   -5.6740   69.5008 H        72 LYS148      0.0000
      5 HG         32.6309   -5.3305   57.2991 H       102 SER178      0.0000
      6 OG         33.3150   -5.7370   57.8180 O.3     102 SER178      0.0000
      7 HH         34.0153  -12.8838   63.9991 H       333 TYR409      0.0000
      8 OH         33.8000  -13.3860   63.2220 O.3     333 TYR409      0.0000
@<TRIPOS>BOND
     1    2    1 1
     2    2    3 1
     3    2    4 1
     4    6    5 1
     5    8    7 1
@<TRIPOS>SUBSTRUCTURE
72 LYS148 1
102 SER178 5
333 TYR409 7
@<TRIPOS>COMMENT
@<TRIPOS>MOLECULE
129821 CHEMBL81286_entry_00001_conf_23_protein
8 5 3
SMALL
NO_CHARGES


@<TRIPOS>ATOM
      1 HZ1        31.5811   -4.5754   67.9590 H        72 LYS148      0.0000
      2 NZ         31.1930   -4.8230   68.9360 N.4      72 LYS148      1.0000
      3 HZ2        31.7293   -5.6728   69.3317 H        72 LYS148      0.0000
      4 HZ3        30.1436   -5.0652   68.8557 H        72 LYS148      0.0000
      5 HG         33.2071   -6.5345   58.3228 H       102 SER178      0.0000
      6 OG         33.3150   -5.7370   57.8180 O.3     102 SER178      0.0000
      7 HH         34.0414  -12.7434   63.8787 H       333 TYR409      0.0000
      8 OH         33.8000  -13.3860   63.2220 O.3     333 TYR409      0.0000
@<TRIPOS>BOND
     1    2    1 1
     2    2    3 1
     3    2    4 1
     4    6    5 1
     5    8    7 1
@<TRIPOS>SUBSTRUCTURE
72 LYS148 1
102 SER178 5
333 TYR409 7
@<TRIPOS>COMMENT
@<TRIPOS>MOLECULE
129821 CHEMBL81286_entry_00001_conf_24_protein
8 5 3
SMALL
NO_CHARGES


@<TRIPOS>ATOM
      1 HZ1        30.7830   -4.4858   67.9955 H        72 LYS148      0.0000
      2 NZ         31.1930   -4.8230   68.9360 N.4      72 LYS148      1.0000
      3 HZ2        32.1512   -5.2905   68.7641 H        72 LYS148      0.0000
      4 HZ3        30.5198   -5.5371   69.3868 H        72 LYS148      0.0000
      5 HG         32.9330   -5.2505   57.0969 H       102 SER178      0.0000
      6 OG         33.3150   -5.7370   57.8180 O.3     102 SER178      0.0000
      7 HH         33.1277  -13.9558   62.8672 H       333 TYR409      0.0000
      8 OH         33.8000  -13.3860   63.2220 O.3     333 TYR409      0.0000
@<TRIPOS>BOND
     1    2    1 1
     2    2    3 1
     3    2    4 1
     4    6    5 1
     5    8    7 1
@<TRIPOS>SUBSTRUCTURE
72 LYS148 1
102 SER178 5
333 TYR409 7
@<TRIPOS>COMMENT
@<TRIPOS>MOLECULE
129821 CHEMBL81286_entry_00001_conf_25_protein
8 5 3
SMALL
NO_CHARGES


@<TRIPOS>ATOM
      1 HZ1        31.1547   -5.7328   69.5167 H        72 LYS148      0.0000
      2 NZ         31.1930   -4.8230   68.9360 N.4      72 LYS148      1.0000
      3 HZ2        30.2738   -4.7117   68.3800 H        72 LYS148      0.0000
      4 HZ3        32.0256   -4.8688   68.2496 H        72 LYS148      0.0000
      5 HG         32.4522   -5.4746   57.5193 H       102 SER178      0.0000
      6 OG         33.3150   -5.7370   57.8180 O.3     102 SER178      0.0000
      7 HH         34.0467  -12.6917   63.8217 H       333 TYR409      0.0000
      8 OH         33.8000  -13.3860   63.2220 O.3     333 TYR409      0.0000
@<TRIPOS>BOND
     1    2    1 1
     2    2    3 1
     3    2    4 1
     4    6    5 1
     5    8    7 1
@<TRIPOS>SUBSTRUCTURE
72 LYS148 1
102 SER178 5
333 TYR409 7
@<TRIPOS>COMMENT
