@<TRIPOS>MOLECULE
424102 CHEMBL400553_entry_00001_conf_01_protein
8 5 3
SMALL
NO_CHARGES


@<TRIPOS>ATOM
      1 HZ1        31.2083   -4.4827   67.9111 H        72 LYS148      0.0000
      2 NZ         31.1930   -4.8230   68.9360 N.4      72 LYS148      1.0000
      3 HZ2        31.9973   -5.5262   69.0939 H        72 LYS148      0.0000
      4 HZ3        30.2484   -5.3045   69.1413 H        72 LYS148      0.0000
      5 HG         34.0867   -5.8631   57.2784 H       102 SER178      0.0000
      6 OG         33.3150   -5.7370   57.8180 O.3     102 SER178      0.0000
      7 HH         34.0267  -12.8317   63.9594 H       333 TYR409      0.0000
      8 OH         33.8000  -13.3860   63.2220 O.3     333 TYR409      0.0000
@<TRIPOS>BOND
     1    2    1 1
     2    2    3 1
     3    2    4 1
     4    6    5 1
     5    8    7 1
@<TRIPOS>SUBSTRUCTURE
72 LYS148 1
102 SER178 5
333 TYR409 7
@<TRIPOS>COMMENT
@<TRIPOS>MOLECULE
424102 CHEMBL400553_entry_00001_conf_02_protein
8 5 3
SMALL
NO_CHARGES


@<TRIPOS>ATOM
      1 HZ1        30.3568   -4.6430   68.2766 H        72 LYS148      0.0000
      2 NZ         31.1930   -4.8230   68.9360 N.4      72 LYS148      1.0000
      3 HZ2        32.0906   -4.9577   68.3508 H        72 LYS148      0.0000
      4 HZ3        31.0066   -5.7127   69.5191 H        72 LYS148      0.0000
      5 HG         32.5182   -6.1209   58.1647 H       102 SER178      0.0000
      6 OG         33.3150   -5.7370   57.8180 O.3     102 SER178      0.0000
      7 HH         33.6910  -13.6587   64.1255 H       333 TYR409      0.0000
      8 OH         33.8000  -13.3860   63.2220 O.3     333 TYR409      0.0000
@<TRIPOS>BOND
     1    2    1 1
     2    2    3 1
     3    2    4 1
     4    6    5 1
     5    8    7 1
@<TRIPOS>SUBSTRUCTURE
72 LYS148 1
102 SER178 5
333 TYR409 7
@<TRIPOS>COMMENT
@<TRIPOS>MOLECULE
424102 CHEMBL400553_entry_00001_conf_03_protein
8 5 3
SMALL
NO_CHARGES


@<TRIPOS>ATOM
      1 HZ1        30.5333   -4.5507   68.1254 H        72 LYS148      0.0000
      2 NZ         31.1930   -4.8230   68.9360 N.4      72 LYS148      1.0000
      3 HZ2        32.1537   -5.1126   68.5366 H        72 LYS148      0.0000
      4 HZ3        30.7670   -5.6501   69.4844 H        72 LYS148      0.0000
      5 HG         34.1254   -5.9827   57.3874 H       102 SER178      0.0000
      6 OG         33.3150   -5.7370   57.8180 O.3     102 SER178      0.0000
      7 HH         34.0209  -12.4955   63.4684 H       333 TYR409      0.0000
      8 OH         33.8000  -13.3860   63.2220 O.3     333 TYR409      0.0000
@<TRIPOS>BOND
     1    2    1 1
     2    2    3 1
     3    2    4 1
     4    6    5 1
     5    8    7 1
@<TRIPOS>SUBSTRUCTURE
72 LYS148 1
102 SER178 5
333 TYR409 7
@<TRIPOS>COMMENT
@<TRIPOS>MOLECULE
424102 CHEMBL400553_entry_00001_conf_04_protein
8 5 3
SMALL
NO_CHARGES


@<TRIPOS>ATOM
      1 HZ1        30.9202   -5.6947   69.5123 H        72 LYS148      0.0000
      2 NZ         31.1930   -4.8230   68.9360 N.4      72 LYS148      1.0000
      3 HZ2        30.4143   -4.6068   68.2196 H        72 LYS148      0.0000
      4 HZ3        32.1197   -5.0119   68.4145 H        72 LYS148      0.0000
      5 HG         32.7296   -5.2899   57.2181 H       102 SER178      0.0000
      6 OG         33.3150   -5.7370   57.8180 O.3     102 SER178      0.0000
      7 HH         33.8732  -13.3020   64.1654 H       333 TYR409      0.0000
      8 OH         33.8000  -13.3860   63.2220 O.3     333 TYR409      0.0000
@<TRIPOS>BOND
     1    2    1 1
     2    2    3 1
     3    2    4 1
     4    6    5 1
     5    8    7 1
@<TRIPOS>SUBSTRUCTURE
72 LYS148 1
102 SER178 5
333 TYR409 7
@<TRIPOS>COMMENT
@<TRIPOS>MOLECULE
424102 CHEMBL400553_entry_00001_conf_05_protein
8 5 3
SMALL
NO_CHARGES


@<TRIPOS>ATOM
      1 HZ1        30.2782   -4.7075   68.3737 H        72 LYS148      0.0000
      2 NZ         31.1930   -4.8230   68.9360 N.4      72 LYS148      1.0000
      3 HZ2        32.0300   -4.8740   68.2554 H        72 LYS148      0.0000
      4 HZ3        31.1459   -5.7320   69.5173 H        72 LYS148      0.0000
      5 HG         32.7817   -5.2749   57.1819 H       102 SER178      0.0000
      6 OG         33.3150   -5.7370   57.8180 O.3     102 SER178      0.0000
      7 HH         33.6485  -13.7271   64.0956 H       333 TYR409      0.0000
      8 OH         33.8000  -13.3860   63.2220 O.3     333 TYR409      0.0000
@<TRIPOS>BOND
     1    2    1 1
     2    2    3 1
     3    2    4 1
     4    6    5 1
     5    8    7 1
@<TRIPOS>SUBSTRUCTURE
72 LYS148 1
102 SER178 5
333 TYR409 7
@<TRIPOS>COMMENT
@<TRIPOS>MOLECULE
424102 CHEMBL400553_entry_00001_conf_06_protein
8 5 3
SMALL
NO_CHARGES


@<TRIPOS>ATOM
      1 HZ1        30.6325   -5.5960   69.4407 H        72 LYS148      0.0000
      2 NZ         31.1930   -4.8230   68.9360 N.4      72 LYS148      1.0000
      3 HZ2        30.6590   -4.5107   68.0508 H        72 LYS148      0.0000
      4 HZ3        32.1626   -5.2067   68.6549 H        72 LYS148      0.0000
      5 HG         32.9799   -5.2479   57.0757 H       102 SER178      0.0000
      6 OG         33.3150   -5.7370   57.8180 O.3     102 SER178      0.0000
      7 HH         33.8244  -13.4093   64.1714 H       333 TYR409      0.0000
      8 OH         33.8000  -13.3860   63.2220 O.3     333 TYR409      0.0000
@<TRIPOS>BOND
     1    2    1 1
     2    2    3 1
     3    2    4 1
     4    6    5 1
     5    8    7 1
@<TRIPOS>SUBSTRUCTURE
72 LYS148 1
102 SER178 5
333 TYR409 7
@<TRIPOS>COMMENT
@<TRIPOS>MOLECULE
424102 CHEMBL400553_entry_00001_conf_07_protein
8 5 3
SMALL
NO_CHARGES


@<TRIPOS>ATOM
      1 HZ1        32.0642   -5.4585   68.9948 H        72 LYS148      0.0000
      2 NZ         31.1930   -4.8230   68.9360 N.4      72 LYS148      1.0000
      3 HZ2        30.3178   -5.3837   69.2293 H        72 LYS148      0.0000
      4 HZ3        31.0720   -4.4711   67.9221 H        72 LYS148      0.0000
      5 HG         33.4743   -5.3356   56.9718 H       102 SER178      0.0000
      6 OG         33.3150   -5.7370   57.8180 O.3     102 SER178      0.0000
      7 HH         33.9619  -13.0708   64.1034 H       333 TYR409      0.0000
      8 OH         33.8000  -13.3860   63.2220 O.3     333 TYR409      0.0000
@<TRIPOS>BOND
     1    2    1 1
     2    2    3 1
     3    2    4 1
     4    6    5 1
     5    8    7 1
@<TRIPOS>SUBSTRUCTURE
72 LYS148 1
102 SER178 5
333 TYR409 7
@<TRIPOS>COMMENT
@<TRIPOS>MOLECULE
424102 CHEMBL400553_entry_00001_conf_08_protein
8 5 3
SMALL
NO_CHARGES


@<TRIPOS>ATOM
      1 HZ1        30.2852   -5.3493   69.1915 H        72 LYS148      0.0000
      2 NZ         31.1930   -4.8230   68.9360 N.4      72 LYS148      1.0000
      3 HZ2        31.1323   -4.4748   67.9155 H        72 LYS148      0.0000
      4 HZ3        32.0366   -5.4893   69.0395 H        72 LYS148      0.0000
      5 HG         32.8324   -5.2638   57.1504 H       102 SER178      0.0000
      6 OG         33.3150   -5.7370   57.8180 O.3     102 SER178      0.0000
      7 HH         33.8817  -13.2821   64.1627 H       333 TYR409      0.0000
      8 OH         33.8000  -13.3860   63.2220 O.3     333 TYR409      0.0000
@<TRIPOS>BOND
     1    2    1 1
     2    2    3 1
     3    2    4 1
     4    6    5 1
     5    8    7 1
@<TRIPOS>SUBSTRUCTURE
72 LYS148 1
102 SER178 5
333 TYR409 7
@<TRIPOS>COMMENT
@<TRIPOS>MOLECULE
424102 CHEMBL400553_entry_00001_conf_09_protein
8 5 3
SMALL
NO_CHARGES


@<TRIPOS>ATOM
      1 HZ1        30.1432   -5.0625   68.8523 H        72 LYS148      0.0000
      2 NZ         31.1930   -4.8230   68.9360 N.4      72 LYS148      1.0000
      3 HZ2        31.5851   -4.5769   67.9603 H        72 LYS148      0.0000
      4 HZ3        31.7258   -5.6740   69.3339 H        72 LYS148      0.0000
      5 HG         32.3651   -5.7423   57.8317 H       102 SER178      0.0000
      6 OG         33.3150   -5.7370   57.8180 O.3     102 SER178      0.0000
      7 HH         33.7656  -13.5262   64.1609 H       333 TYR409      0.0000
      8 OH         33.8000  -13.3860   63.2220 O.3     333 TYR409      0.0000
@<TRIPOS>BOND
     1    2    1 1
     2    2    3 1
     3    2    4 1
     4    6    5 1
     5    8    7 1
@<TRIPOS>SUBSTRUCTURE
72 LYS148 1
102 SER178 5
333 TYR409 7
@<TRIPOS>COMMENT
@<TRIPOS>MOLECULE
424102 CHEMBL400553_entry_00001_conf_10_protein
8 5 3
SMALL
NO_CHARGES


@<TRIPOS>ATOM
      1 HZ1        31.8732   -4.7308   68.1022 H        72 LYS148      0.0000
      2 NZ         31.1930   -4.8230   68.9360 N.4      72 LYS148      1.0000
      3 HZ2        31.4038   -5.7357   69.4734 H        72 LYS148      0.0000
      4 HZ3        30.1769   -4.8468   68.5707 H        72 LYS148      0.0000
      5 HG         33.3877   -5.3055   56.9748 H       102 SER178      0.0000
      6 OG         33.3150   -5.7370   57.8180 O.3     102 SER178      0.0000
      7 HH         33.7560  -13.5442   64.1577 H       333 TYR409      0.0000
      8 OH         33.8000  -13.3860   63.2220 O.3     333 TYR409      0.0000
@<TRIPOS>BOND
     1    2    1 1
     2    2    3 1
     3    2    4 1
     4    6    5 1
     5    8    7 1
@<TRIPOS>SUBSTRUCTURE
72 LYS148 1
102 SER178 5
333 TYR409 7
@<TRIPOS>COMMENT
@<TRIPOS>MOLECULE
424102 CHEMBL400553_entry_00001_conf_11_protein
8 5 3
SMALL
NO_CHARGES


@<TRIPOS>ATOM
      1 HZ1        30.1404   -4.9935   68.7648 H        72 LYS148      0.0000
      2 NZ         31.1930   -4.8230   68.9360 N.4      72 LYS148      1.0000
      3 HZ2        31.6823   -4.6186   67.9952 H        72 LYS148      0.0000
      4 HZ3        31.6314   -5.7013   69.3864 H        72 LYS148      0.0000
      5 HG         32.4798   -5.4420   57.4746 H       102 SER178      0.0000
      6 OG         33.3150   -5.7370   57.8180 O.3     102 SER178      0.0000
      7 HH         33.7580  -13.5405   64.1584 H       333 TYR409      0.0000
      8 OH         33.8000  -13.3860   63.2220 O.3     333 TYR409      0.0000
@<TRIPOS>BOND
     1    2    1 1
     2    2    3 1
     3    2    4 1
     4    6    5 1
     5    8    7 1
@<TRIPOS>SUBSTRUCTURE
72 LYS148 1
102 SER178 5
333 TYR409 7
@<TRIPOS>COMMENT
@<TRIPOS>MOLECULE
424102 CHEMBL400553_entry_00001_conf_12_protein
8 5 3
SMALL
NO_CHARGES


@<TRIPOS>ATOM
      1 HZ1        30.1457   -4.9454   68.7023 H        72 LYS148      0.0000
      2 NZ         31.1930   -4.8230   68.9360 N.4      72 LYS148      1.0000
      3 HZ2        31.7475   -4.6518   68.0252 H        72 LYS148      0.0000
      4 HZ3        31.5608   -5.7163   69.4189 H        72 LYS148      0.0000
      5 HG         32.3850   -5.6022   57.6784 H       102 SER178      0.0000
      6 OG         33.3150   -5.7370   57.8180 O.3     102 SER178      0.0000
      7 HH         33.5377  -13.8843   63.9871 H       333 TYR409      0.0000
      8 OH         33.8000  -13.3860   63.2220 O.3     333 TYR409      0.0000
@<TRIPOS>BOND
     1    2    1 1
     2    2    3 1
     3    2    4 1
     4    6    5 1
     5    8    7 1
@<TRIPOS>SUBSTRUCTURE
72 LYS148 1
102 SER178 5
333 TYR409 7
@<TRIPOS>COMMENT
@<TRIPOS>MOLECULE
424102 CHEMBL400553_entry_00001_conf_13_protein
8 5 3
SMALL
NO_CHARGES


@<TRIPOS>ATOM
      1 HZ1        31.9443   -5.5670   69.1560 H        72 LYS148      0.0000
      2 NZ         31.1930   -4.8230   68.9360 N.4      72 LYS148      1.0000
      3 HZ2        30.2112   -5.2497   69.0784 H        72 LYS148      0.0000
      4 HZ3        31.2986   -4.4966   67.9119 H        72 LYS148      0.0000
      5 HG         33.1390   -5.2539   57.0192 H       102 SER178      0.0000
      6 OG         33.3150   -5.7370   57.8180 O.3     102 SER178      0.0000
      7 HH         34.0239  -12.8453   63.9703 H       333 TYR409      0.0000
      8 OH         33.8000  -13.3860   63.2220 O.3     333 TYR409      0.0000
@<TRIPOS>BOND
     1    2    1 1
     2    2    3 1
     3    2    4 1
     4    6    5 1
     5    8    7 1
@<TRIPOS>SUBSTRUCTURE
72 LYS148 1
102 SER178 5
333 TYR409 7
@<TRIPOS>COMMENT
@<TRIPOS>MOLECULE
424102 CHEMBL400553_entry_00001_conf_14_protein
8 5 3
SMALL
NO_CHARGES


@<TRIPOS>ATOM
      1 HZ1        30.1408   -5.0372   68.8204 H        72 LYS148      0.0000
      2 NZ         31.1930   -4.8230   68.9360 N.4      72 LYS148      1.0000
      3 HZ2        31.6214   -4.5915   67.9720 H        72 LYS148      0.0000
      4 HZ3        31.6919   -5.6848   69.3540 H        72 LYS148      0.0000
      5 HG         34.0880   -6.2786   57.7095 H       102 SER178      0.0000
      6 OG         33.3150   -5.7370   57.8180 O.3     102 SER178      0.0000
      7 HH         33.2295  -13.4559   62.4656 H       333 TYR409      0.0000
      8 OH         33.8000  -13.3860   63.2220 O.3     333 TYR409      0.0000
@<TRIPOS>BOND
     1    2    1 1
     2    2    3 1
     3    2    4 1
     4    6    5 1
     5    8    7 1
@<TRIPOS>SUBSTRUCTURE
72 LYS148 1
102 SER178 5
333 TYR409 7
@<TRIPOS>COMMENT
@<TRIPOS>MOLECULE
424102 CHEMBL400553_entry_00001_conf_15_protein
8 5 3
SMALL
NO_CHARGES


@<TRIPOS>ATOM
      1 HZ1        31.0337   -4.4699   67.9279 H        72 LYS148      0.0000
      2 NZ         31.1930   -4.8230   68.9360 N.4      72 LYS148      1.0000
      3 HZ2        32.0801   -5.4383   68.9661 H        72 LYS148      0.0000
      4 HZ3        30.3402   -5.4052   69.2525 H        72 LYS148      0.0000
      5 HG         32.7036   -5.2989   57.2377 H       102 SER178      0.0000
      6 OG         33.3150   -5.7370   57.8180 O.3     102 SER178      0.0000
      7 HH         33.9014  -13.2346   64.1544 H       333 TYR409      0.0000
      8 OH         33.8000  -13.3860   63.2220 O.3     333 TYR409      0.0000
@<TRIPOS>BOND
     1    2    1 1
     2    2    3 1
     3    2    4 1
     4    6    5 1
     5    8    7 1
@<TRIPOS>SUBSTRUCTURE
72 LYS148 1
102 SER178 5
333 TYR409 7
@<TRIPOS>COMMENT
@<TRIPOS>MOLECULE
424102 CHEMBL400553_entry_00001_conf_16_protein
8 5 3
SMALL
NO_CHARGES


@<TRIPOS>ATOM
      1 HZ1        31.0266   -5.7163   69.5198 H        72 LYS148      0.0000
      2 NZ         31.1930   -4.8230   68.9360 N.4      72 LYS148      1.0000
      3 HZ2        30.3446   -4.6517   68.2901 H        72 LYS148      0.0000
      4 HZ3        32.0829   -4.9453   68.3365 H        72 LYS148      0.0000
      5 HG         33.3686   -6.5614   58.2870 H       102 SER178      0.0000
      6 OG         33.3150   -5.7370   57.8180 O.3     102 SER178      0.0000
      7 HH         33.5524  -13.8652   64.0040 H       333 TYR409      0.0000
      8 OH         33.8000  -13.3860   63.2220 O.3     333 TYR409      0.0000
@<TRIPOS>BOND
     1    2    1 1
     2    2    3 1
     3    2    4 1
     4    6    5 1
     5    8    7 1
@<TRIPOS>SUBSTRUCTURE
72 LYS148 1
102 SER178 5
333 TYR409 7
@<TRIPOS>COMMENT
@<TRIPOS>MOLECULE
424102 CHEMBL400553_entry_00001_conf_17_protein
8 5 3
SMALL
NO_CHARGES


@<TRIPOS>ATOM
      1 HZ1        30.3375   -4.6570   68.2981 H        72 LYS148      0.0000
      2 NZ         31.1930   -4.8230   68.9360 N.4      72 LYS148      1.0000
      3 HZ2        32.0783   -4.9382   68.3283 H        72 LYS148      0.0000
      4 HZ3        31.0383   -5.7182   69.5201 H        72 LYS148      0.0000
      5 HG         32.4365   -5.4963   57.5480 H       102 SER178      0.0000
      6 OG         33.3150   -5.7370   57.8180 O.3     102 SER178      0.0000
      7 HH         34.0286  -12.8222   63.9516 H       333 TYR409      0.0000
      8 OH         33.8000  -13.3860   63.2220 O.3     333 TYR409      0.0000
@<TRIPOS>BOND
     1    2    1 1
     2    2    3 1
     3    2    4 1
     4    6    5 1
     5    8    7 1
@<TRIPOS>SUBSTRUCTURE
72 LYS148 1
102 SER178 5
333 TYR409 7
@<TRIPOS>COMMENT
@<TRIPOS>MOLECULE
424102 CHEMBL400553_entry_00001_conf_18_protein
8 5 3
SMALL
NO_CHARGES


@<TRIPOS>ATOM
      1 HZ1        30.9957   -4.4697   67.9347 H        72 LYS148      0.0000
      2 NZ         31.1930   -4.8230   68.9360 N.4      72 LYS148      1.0000
      3 HZ2        32.0946   -5.4175   68.9369 H        72 LYS148      0.0000
      4 HZ3        30.3637   -5.4262   69.2748 H        72 LYS148      0.0000
      5 HG         32.9546   -5.2490   57.0869 H       102 SER178      0.0000
      6 OG         33.3150   -5.7370   57.8180 O.3     102 SER178      0.0000
      7 HH         33.8704  -13.3084   64.1662 H       333 TYR409      0.0000
      8 OH         33.8000  -13.3860   63.2220 O.3     333 TYR409      0.0000
@<TRIPOS>BOND
     1    2    1 1
     2    2    3 1
     3    2    4 1
     4    6    5 1
     5    8    7 1
@<TRIPOS>SUBSTRUCTURE
72 LYS148 1
102 SER178 5
333 TYR409 7
@<TRIPOS>COMMENT
@<TRIPOS>MOLECULE
424102 CHEMBL400553_entry_00001_conf_19_protein
8 5 3
SMALL
NO_CHARGES


@<TRIPOS>ATOM
      1 HZ1        31.1398   -4.4754   67.9148 H        72 LYS148      0.0000
      2 NZ         31.1930   -4.8230   68.9360 N.4      72 LYS148      1.0000
      3 HZ2        32.0329   -5.4931   69.0450 H        72 LYS148      0.0000
      4 HZ3        30.2812   -5.3448   69.1866 H        72 LYS148      0.0000
      5 HG         32.6359   -5.3280   57.2945 H       102 SER178      0.0000
      6 OG         33.3150   -5.7370   57.8180 O.3     102 SER178      0.0000
      7 HH         33.8962  -13.2475   64.1569 H       333 TYR409      0.0000
      8 OH         33.8000  -13.3860   63.2220 O.3     333 TYR409      0.0000
@<TRIPOS>BOND
     1    2    1 1
     2    2    3 1
     3    2    4 1
     4    6    5 1
     5    8    7 1
@<TRIPOS>SUBSTRUCTURE
72 LYS148 1
102 SER178 5
333 TYR409 7
@<TRIPOS>COMMENT
@<TRIPOS>MOLECULE
424102 CHEMBL400553_entry_00001_conf_20_protein
8 5 3
SMALL
NO_CHARGES


@<TRIPOS>ATOM
      1 HZ1        30.6877   -4.5038   68.0365 H        72 LYS148      0.0000
      2 NZ         31.1930   -4.8230   68.9360 N.4      72 LYS148      1.0000
      3 HZ2        32.1616   -5.2269   68.6809 H        72 LYS148      0.0000
      4 HZ3        30.6047   -5.5827   69.4291 H        72 LYS148      0.0000
      5 HG         32.3956   -5.9047   57.9884 H       102 SER178      0.0000
      6 OG         33.3150   -5.7370   57.8180 O.3     102 SER178      0.0000
      7 HH         33.9484  -12.4484   63.1860 H       333 TYR409      0.0000
      8 OH         33.8000  -13.3860   63.2220 O.3     333 TYR409      0.0000
@<TRIPOS>BOND
     1    2    1 1
     2    2    3 1
     3    2    4 1
     4    6    5 1
     5    8    7 1
@<TRIPOS>SUBSTRUCTURE
72 LYS148 1
102 SER178 5
333 TYR409 7
@<TRIPOS>COMMENT
@<TRIPOS>MOLECULE
424102 CHEMBL400553_entry_00001_conf_21_protein
8 5 3
SMALL
NO_CHARGES


@<TRIPOS>ATOM
      1 HZ1        31.7038   -4.6291   68.0044 H        72 LYS148      0.0000
      2 NZ         31.1930   -4.8230   68.9360 N.4      72 LYS148      1.0000
      3 HZ2        31.6087   -5.7065   69.3974 H        72 LYS148      0.0000
      4 HZ3        30.1414   -4.9778   68.7445 H        72 LYS148      0.0000
      5 HG         33.0763   -5.2489   57.0387 H       102 SER178      0.0000
      6 OG         33.3150   -5.7370   57.8180 O.3     102 SER178      0.0000
      7 HH         33.5046  -13.9251   63.9463 H       333 TYR409      0.0000
      8 OH         33.8000  -13.3860   63.2220 O.3     333 TYR409      0.0000
@<TRIPOS>BOND
     1    2    1 1
     2    2    3 1
     3    2    4 1
     4    6    5 1
     5    8    7 1
@<TRIPOS>SUBSTRUCTURE
72 LYS148 1
102 SER178 5
333 TYR409 7
@<TRIPOS>COMMENT
@<TRIPOS>MOLECULE
424102 CHEMBL400553_entry_00001_conf_22_protein
8 5 3
SMALL
NO_CHARGES


@<TRIPOS>ATOM
      1 HZ1        31.8763   -4.7330   68.1045 H        72 LYS148      0.0000
      2 NZ         31.1930   -4.8230   68.9360 N.4      72 LYS148      1.0000
      3 HZ2        31.3996   -5.7360   69.4746 H        72 LYS148      0.0000
      4 HZ3        30.1781   -4.8443   68.5673 H        72 LYS148      0.0000
      5 HG         33.2364   -5.2681   56.9955 H       102 SER178      0.0000
      6 OG         33.3150   -5.7370   57.8180 O.3     102 SER178      0.0000
      7 HH         33.4161  -13.0344   62.4273 H       333 TYR409      0.0000
      8 OH         33.8000  -13.3860   63.2220 O.3     333 TYR409      0.0000
@<TRIPOS>BOND
     1    2    1 1
     2    2    3 1
     3    2    4 1
     4    6    5 1
     5    8    7 1
@<TRIPOS>SUBSTRUCTURE
72 LYS148 1
102 SER178 5
333 TYR409 7
@<TRIPOS>COMMENT
@<TRIPOS>MOLECULE
424102 CHEMBL400553_entry_00001_conf_23_protein
8 5 3
SMALL
NO_CHARGES


@<TRIPOS>ATOM
      1 HZ1        30.9384   -4.4710   67.9472 H        72 LYS148      0.0000
      2 NZ         31.1930   -4.8230   68.9360 N.4      72 LYS148      1.0000
      3 HZ2        32.1140   -5.3853   68.8920 H        72 LYS148      0.0000
      4 HZ3        30.4015   -5.4571   69.3072 H        72 LYS148      0.0000
      5 HG         32.4618   -6.0412   58.1042 H       102 SER178      0.0000
      6 OG         33.3150   -5.7370   57.8180 O.3     102 SER178      0.0000
      7 HH         33.8415  -13.3729   64.1710 H       333 TYR409      0.0000
      8 OH         33.8000  -13.3860   63.2220 O.3     333 TYR409      0.0000
@<TRIPOS>BOND
     1    2    1 1
     2    2    3 1
     3    2    4 1
     4    6    5 1
     5    8    7 1
@<TRIPOS>SUBSTRUCTURE
72 LYS148 1
102 SER178 5
333 TYR409 7
@<TRIPOS>COMMENT
@<TRIPOS>MOLECULE
424102 CHEMBL400553_entry_00001_conf_24_protein
8 5 3
SMALL
NO_CHARGES


@<TRIPOS>ATOM
      1 HZ1        31.5680   -4.5704   67.9552 H        72 LYS148      0.0000
      2 NZ         31.1930   -4.8230   68.9360 N.4      72 LYS148      1.0000
      3 HZ2        31.7411   -5.6687   69.3242 H        72 LYS148      0.0000
      4 HZ3        30.1449   -5.0742   68.8670 H        72 LYS148      0.0000
      5 HG         32.7615   -5.2803   57.1955 H       102 SER178      0.0000
      6 OG         33.3150   -5.7370   57.8180 O.3     102 SER178      0.0000
      7 HH         33.1273  -13.9247   62.8223 H       333 TYR409      0.0000
      8 OH         33.8000  -13.3860   63.2220 O.3     333 TYR409      0.0000
@<TRIPOS>BOND
     1    2    1 1
     2    2    3 1
     3    2    4 1
     4    6    5 1
     5    8    7 1
@<TRIPOS>SUBSTRUCTURE
72 LYS148 1
102 SER178 5
333 TYR409 7
@<TRIPOS>COMMENT
@<TRIPOS>MOLECULE
424102 CHEMBL400553_entry_00001_conf_25_protein
8 5 3
SMALL
NO_CHARGES


@<TRIPOS>ATOM
      1 HZ1        31.1180   -4.4737   67.9168 H        72 LYS148      0.0000
      2 NZ         31.1930   -4.8230   68.9360 N.4      72 LYS148      1.0000
      3 HZ2        32.0434   -5.4822   69.0291 H        72 LYS148      0.0000
      4 HZ3        30.2926   -5.3575   69.2006 H        72 LYS148      0.0000
      5 HG         32.4993   -6.0963   58.1467 H       102 SER178      0.0000
      6 OG         33.3150   -5.7370   57.8180 O.3     102 SER178      0.0000
      7 HH         33.8533  -13.3472   64.1697 H       333 TYR409      0.0000
      8 OH         33.8000  -13.3860   63.2220 O.3     333 TYR409      0.0000
@<TRIPOS>BOND
     1    2    1 1
     2    2    3 1
     3    2    4 1
     4    6    5 1
     5    8    7 1
@<TRIPOS>SUBSTRUCTURE
72 LYS148 1
102 SER178 5
333 TYR409 7
@<TRIPOS>COMMENT
