@<TRIPOS>MOLECULE
1b9s_water
360 240 120
SMALL
GASTEIGER


@<TRIPOS>ATOM
      1 O          23.1870  -20.5900   64.4090 O.3     395 HOH502      0.0000
      2 H1         22.2370  -20.5900   64.4090 H       395 HOH502      0.0000
      3 H2         23.4321  -19.6722   64.4090 H       395 HOH502      0.0000
      4 O          25.8270  -22.4270   64.3550 O.3     396 HOH503      0.0000
      5 H1         24.8770  -22.4270   64.3550 H       396 HOH503      0.0000
      6 H2         26.0721  -21.5092   64.3550 H       396 HOH503      0.0000
      7 O          49.8250   -8.0650   37.0200 O.3     397 HOH579      0.0000
      8 H1         48.8750   -8.0650   37.0200 H       397 HOH579      0.0000
      9 H2         50.0701   -7.1472   37.0200 H       397 HOH579      0.0000
     10 O          46.6730  -28.5690   39.4770 O.3     398 HOH586      0.0000
     11 H1         45.7230  -28.5690   39.4770 H       398 HOH586      0.0000
     12 H2         46.9181  -27.6512   39.4770 H       398 HOH586      0.0000
     13 O          47.6950  -26.7240   31.9070 O.3     399 HOH588      0.0000
     14 H1         46.7450  -26.7240   31.9070 H       399 HOH588      0.0000
     15 H2         47.9401  -25.8062   31.9070 H       399 HOH588      0.0000
     16 O          53.6740  -32.6340   51.0180 O.3     400 HOH593      0.0000
     17 H1         52.7240  -32.6340   51.0180 H       400 HOH593      0.0000
     18 H2         53.9191  -31.7162   51.0180 H       400 HOH593      0.0000
     19 O          59.3510  -25.1130   63.2000 O.3     401 HOH594      0.0000
     20 H1         58.4010  -25.1130   63.2000 H       401 HOH594      0.0000
     21 H2         59.5961  -24.1952   63.2000 H       401 HOH594      0.0000
     22 O          55.1470   -4.2920   54.8430 O.3     402 HOH595      0.0000
     23 H1         54.1970   -4.2920   54.8430 H       402 HOH595      0.0000
     24 H2         55.3921   -3.3742   54.8430 H       402 HOH595      0.0000
     25 O          54.3360  -12.3010   74.6370 O.3     403 HOH601      0.0000
     26 H1         53.3860  -12.3010   74.6370 H       403 HOH601      0.0000
     27 H2         54.5811  -11.3832   74.6370 H       403 HOH601      0.0000
     28 O          60.8770  -12.7980   72.1910 O.3     404 HOH602      0.0000
     29 H1         59.9270  -12.7980   72.1910 H       404 HOH602      0.0000
     30 H2         61.1221  -11.8802   72.1910 H       404 HOH602      0.0000
     31 O          58.2070   -5.7310   73.4260 O.3     405 HOH603      0.0000
     32 H1         57.2570   -5.7310   73.4260 H       405 HOH603      0.0000
     33 H2         58.4521   -4.8132   73.4260 H       405 HOH603      0.0000
     34 O          53.1970   -7.5780   77.1150 O.3     406 HOH604      0.0000
     35 H1         52.2470   -7.5780   77.1150 H       406 HOH604      0.0000
     36 H2         53.4421   -6.6602   77.1150 H       406 HOH604      0.0000
     37 O          61.5610   -9.2670   72.9380 O.3     407 HOH605      0.0000
     38 H1         60.6110   -9.2670   72.9380 H       407 HOH605      0.0000
     39 H2         61.8061   -8.3492   72.9380 H       407 HOH605      0.0000
     40 O          58.4220   -3.2650   67.2850 O.3     408 HOH609      0.0000
     41 H1         57.4720   -3.2650   67.2850 H       408 HOH609      0.0000
     42 H2         58.6671   -2.3472   67.2850 H       408 HOH609      0.0000
     43 O          61.1350   -7.2760   71.1450 O.3     409 HOH610      0.0000
     44 H1         60.1850   -7.2760   71.1450 H       409 HOH610      0.0000
     45 H2         61.3801   -6.3582   71.1450 H       409 HOH610      0.0000
     46 O          57.1270   -0.5850   66.0830 O.3     410 HOH611      0.0000
     47 H1         56.1770   -0.5850   66.0830 H       410 HOH611      0.0000
     48 H2         57.3721    0.3328   66.0830 H       410 HOH611      0.0000
     49 O          50.5580   -7.9040   64.9200 O.3     411 HOH613      0.0000
     50 H1         49.6080   -7.9040   64.9200 H       411 HOH613      0.0000
     51 H2         50.8031   -6.9862   64.9200 H       411 HOH613      0.0000
     52 O          39.2370  -13.4510   59.6290 O.3     412 HOH618      0.0000
     53 H1         38.2870  -13.4510   59.6290 H       412 HOH618      0.0000
     54 H2         39.4821  -12.5332   59.6290 H       412 HOH618      0.0000
     55 O          41.7400  -14.0690   52.6110 O.3     413 HOH620      0.0000
     56 H1         40.7900  -14.0690   52.6110 H       413 HOH620      0.0000
     57 H2         41.9851  -13.1512   52.6110 H       413 HOH620      0.0000
     58 O          45.1530  -14.2510   47.2960 O.3     414 HOH621      0.0000
     59 H1         44.2030  -14.2510   47.2960 H       414 HOH621      0.0000
     60 H2         45.3981  -13.3332   47.2960 H       414 HOH621      0.0000
     61 O          44.3340  -10.6150   45.8110 O.3     415 HOH622      0.0000
     62 H1         43.3840  -10.6150   45.8110 H       415 HOH622      0.0000
     63 H2         44.5791   -9.6972   45.8110 H       415 HOH622      0.0000
     64 O          51.2760  -13.7740   44.8450 O.3     416 HOH623      0.0000
     65 H1         50.3260  -13.7740   44.8450 H       416 HOH623      0.0000
     66 H2         51.5211  -12.8562   44.8450 H       416 HOH623      0.0000
     67 O          53.5070  -11.3020   57.5720 O.3     417 HOH629      0.0000
     68 H1         52.5570  -11.3020   57.5720 H       417 HOH629      0.0000
     69 H2         53.7521  -10.3842   57.5720 H       417 HOH629      0.0000
     70 O          47.7060   -0.4520   74.1080 O.3     418 HOH637      0.0000
     71 H1         46.7560   -0.4520   74.1080 H       418 HOH637      0.0000
     72 H2         47.9511    0.4658   74.1080 H       418 HOH637      0.0000
     73 O          54.8260   -1.6530   72.4560 O.3     419 HOH638      0.0000
     74 H1         53.8760   -1.6530   72.4560 H       419 HOH638      0.0000
     75 H2         55.0711   -0.7352   72.4560 H       419 HOH638      0.0000
     76 O          41.9210    1.8430   76.5820 O.3     420 HOH640      0.0000
     77 H1         40.9710    1.8430   76.5820 H       420 HOH640      0.0000
     78 H2         42.1661    2.7608   76.5820 H       420 HOH640      0.0000
     79 O          41.3580    3.2260   73.8860 O.3     421 HOH641      0.0000
     80 H1         40.4080    3.2260   73.8860 H       421 HOH641      0.0000
     81 H2         41.6031    4.1438   73.8860 H       421 HOH641      0.0000
     82 O          42.5990    0.9230   72.7250 O.3     422 HOH642      0.0000
     83 H1         41.6490    0.9230   72.7250 H       422 HOH642      0.0000
     84 H2         42.8441    1.8408   72.7250 H       422 HOH642      0.0000
     85 O          54.1960   -2.6840   81.2260 O.3     423 HOH643      0.0000
     86 H1         53.2460   -2.6840   81.2260 H       423 HOH643      0.0000
     87 H2         54.4411   -1.7662   81.2260 H       423 HOH643      0.0000
     88 O          37.0470   -8.1260   66.5330 O.3     424 HOH646      0.0000
     89 H1         36.0970   -8.1260   66.5330 H       424 HOH646      0.0000
     90 H2         37.2921   -7.2082   66.5330 H       424 HOH646      0.0000
     91 O          41.5000   -7.1770   68.2210 O.3     425 HOH649      0.0000
     92 H1         40.5500   -7.1770   68.2210 H       425 HOH649      0.0000
     93 H2         41.7451   -6.2592   68.2210 H       425 HOH649      0.0000
     94 O          36.1350    4.8380   62.0820 O.3     426 HOH650      0.0000
     95 H1         35.1850    4.8380   62.0820 H       426 HOH650      0.0000
     96 H2         36.3801    5.7558   62.0820 H       426 HOH650      0.0000
     97 O          40.5700    0.2250   72.2010 O.3     427 HOH651      0.0000
     98 H1         39.6200    0.2250   72.2010 H       427 HOH651      0.0000
     99 H2         40.8151    1.1428   72.2010 H       427 HOH651      0.0000
    100 O          38.9570    8.4390   65.3130 O.3     428 HOH652      0.0000
    101 H1         38.0070    8.4390   65.3130 H       428 HOH652      0.0000
    102 H2         39.2021    9.3568   65.3130 H       428 HOH652      0.0000
    103 O          53.4840    2.5280   60.0680 O.3     429 HOH667      0.0000
    104 H1         52.5340    2.5280   60.0680 H       429 HOH667      0.0000
    105 H2         53.7291    3.4458   60.0680 H       429 HOH667      0.0000
    106 O          63.3830    4.0630   67.5150 O.3     430 HOH668      0.0000
    107 H1         62.4330    4.0630   67.5150 H       430 HOH668      0.0000
    108 H2         63.6281    4.9808   67.5150 H       430 HOH668      0.0000
    109 O          46.5490    2.5410   51.1360 O.3     431 HOH672      0.0000
    110 H1         45.5990    2.5410   51.1360 H       431 HOH672      0.0000
    111 H2         46.7941    3.4588   51.1360 H       431 HOH672      0.0000
    112 O          49.1100    2.6050   50.8700 O.3     432 HOH673      0.0000
    113 H1         48.1600    2.6050   50.8700 H       432 HOH673      0.0000
    114 H2         49.3551    3.5228   50.8700 H       432 HOH673      0.0000
    115 O          35.0080   -7.8690   62.3410 O.3     433 HOH677      0.0000
    116 H1         34.0580   -7.8690   62.3410 H       433 HOH677      0.0000
    117 H2         35.2531   -6.9512   62.3410 H       433 HOH677      0.0000
    118 O          42.2510   -4.3040   43.1360 O.3     434 HOH682      0.0000
    119 H1         41.3010   -4.3040   43.1360 H       434 HOH682      0.0000
    120 H2         42.4961   -3.3862   43.1360 H       434 HOH682      0.0000
    121 O          41.5220  -11.5830   41.7140 O.3     435 HOH683      0.0000
    122 H1         40.5720  -11.5830   41.7140 H       435 HOH683      0.0000
    123 H2         41.7671  -10.6652   41.7140 H       435 HOH683      0.0000
    124 O          41.3340   -8.9150   37.3740 O.3     436 HOH684      0.0000
    125 H1         40.3840   -8.9150   37.3740 H       436 HOH684      0.0000
    126 H2         41.5791   -7.9972   37.3740 H       436 HOH684      0.0000
    127 O          29.7000    0.6690   65.0840 O.3     437 HOH697      0.0000
    128 H1         28.7500    0.6690   65.0840 H       437 HOH697      0.0000
    129 H2         29.9451    1.5868   65.0840 H       437 HOH697      0.0000
    130 O          25.0490    4.2980   55.3370 O.3     438 HOH700      0.0000
    131 H1         24.0990    4.2980   55.3370 H       438 HOH700      0.0000
    132 H2         25.2941    5.2158   55.3370 H       438 HOH700      0.0000
    133 O          44.0890    5.2650   41.6670 O.3     439 HOH706      0.0000
    134 H1         43.1390    5.2650   41.6670 H       439 HOH706      0.0000
    135 H2         44.3341    6.1828   41.6670 H       439 HOH706      0.0000
    136 O          50.7280    5.4180   51.3050 O.3     440 HOH707      0.0000
    137 H1         49.7780    5.4180   51.3050 H       440 HOH707      0.0000
    138 H2         50.9731    6.3358   51.3050 H       440 HOH707      0.0000
    139 O          47.8820    3.5020   52.6070 O.3     441 HOH708      0.0000
    140 H1         46.9320    3.5020   52.6070 H       441 HOH708      0.0000
    141 H2         48.1271    4.4198   52.6070 H       441 HOH708      0.0000
    142 O          31.9090    7.6700   43.6350 O.3     442 HOH709      0.0000
    143 H1         30.9590    7.6700   43.6350 H       442 HOH709      0.0000
    144 H2         32.1541    8.5878   43.6350 H       442 HOH709      0.0000
    145 O          47.6140    6.3730   52.0900 O.3     443 HOH710      0.0000
    146 H1         46.6640    6.3730   52.0900 H       443 HOH710      0.0000
    147 H2         47.8591    7.2908   52.0900 H       443 HOH710      0.0000
    148 O          45.5760    7.0720   53.5130 O.3     444 HOH711      0.0000
    149 H1         44.6260    7.0720   53.5130 H       444 HOH711      0.0000
    150 H2         45.8211    7.9898   53.5130 H       444 HOH711      0.0000
    151 O          22.0190    1.5140   45.4720 O.3     445 HOH713      0.0000
    152 H1         21.0690    1.5140   45.4720 H       445 HOH713      0.0000
    153 H2         22.2641    2.4318   45.4720 H       445 HOH713      0.0000
    154 O          22.3680    9.2970   54.2770 O.3     446 HOH715      0.0000
    155 H1         21.4180    9.2970   54.2770 H       446 HOH715      0.0000
    156 H2         22.6131   10.2148   54.2770 H       446 HOH715      0.0000
    157 O          24.6400   -0.4850   59.2900 O.3     447 HOH716      0.0000
    158 H1         23.6900   -0.4850   59.2900 H       447 HOH716      0.0000
    159 H2         24.8851    0.4328   59.2900 H       447 HOH716      0.0000
    160 O          29.6210  -10.3510   57.3020 O.3     448 HOH724      0.0000
    161 H1         28.6710  -10.3510   57.3020 H       448 HOH724      0.0000
    162 H2         29.8661   -9.4332   57.3020 H       448 HOH724      0.0000
    163 O          32.2110   -9.4490   60.3300 O.3     449 HOH725      0.0000
    164 H1         31.2610   -9.4490   60.3300 H       449 HOH725      0.0000
    165 H2         32.4561   -8.5312   60.3300 H       449 HOH725      0.0000
    166 O          39.6860   -8.1550   57.8340 O.3     450 HOH726      0.0000
    167 H1         38.7360   -8.1550   57.8340 H       450 HOH726      0.0000
    168 H2         39.9311   -7.2372   57.8340 H       450 HOH726      0.0000
    169 O          37.5540  -14.5580   50.5430 O.3     451 HOH727      0.0000
    170 H1         36.6040  -14.5580   50.5430 H       451 HOH727      0.0000
    171 H2         37.7991  -13.6402   50.5430 H       451 HOH727      0.0000
    172 O          41.7730  -11.3070   43.9890 O.3     452 HOH729      0.0000
    173 H1         40.8230  -11.3070   43.9890 H       452 HOH729      0.0000
    174 H2         42.0181  -10.3892   43.9890 H       452 HOH729      0.0000
    175 O          40.5860  -15.9910   47.4350 O.3     453 HOH730      0.0000
    176 H1         39.6360  -15.9910   47.4350 H       453 HOH730      0.0000
    177 H2         40.8311  -15.0732   47.4350 H       453 HOH730      0.0000
    178 O          35.6070   -4.7060   29.4900 O.3     454 HOH735      0.0000
    179 H1         34.6570   -4.7060   29.4900 H       454 HOH735      0.0000
    180 H2         35.8521   -3.7882   29.4900 H       454 HOH735      0.0000
    181 O          40.1310    4.3210   39.6840 O.3     455 HOH736      0.0000
    182 H1         39.1810    4.3210   39.6840 H       455 HOH736      0.0000
    183 H2         40.3761    5.2388   39.6840 H       455 HOH736      0.0000
    184 O          34.6830  -12.4450   46.4310 O.3     456 HOH737      0.0000
    185 H1         33.7330  -12.4450   46.4310 H       456 HOH737      0.0000
    186 H2         34.9281  -11.5272   46.4310 H       456 HOH737      0.0000
    187 O          17.5230   -6.5770   52.8710 O.3     457 HOH741      0.0000
    188 H1         16.5730   -6.5770   52.8710 H       457 HOH741      0.0000
    189 H2         17.7681   -5.6592   52.8710 H       457 HOH741      0.0000
    190 O          15.9990   -3.9630   53.6220 O.3     458 HOH742      0.0000
    191 H1         15.0490   -3.9630   53.6220 H       458 HOH742      0.0000
    192 H2         16.2441   -3.0452   53.6220 H       458 HOH742      0.0000
    193 O          19.4600   -8.1920   50.0010 O.3     459 HOH752      0.0000
    194 H1         18.5100   -8.1920   50.0010 H       459 HOH752      0.0000
    195 H2         19.7051   -7.2742   50.0010 H       459 HOH752      0.0000
    196 O          28.4460   -5.7590   29.9100 O.3     460 HOH755      0.0000
    197 H1         27.4960   -5.7590   29.9100 H       460 HOH755      0.0000
    198 H2         28.6911   -4.8412   29.9100 H       460 HOH755      0.0000
    199 O          47.4100    1.1160   39.0600 O.3     461 HOH756      0.0000
    200 H1         46.4600    1.1160   39.0600 H       461 HOH756      0.0000
    201 H2         47.6551    2.0338   39.0600 H       461 HOH756      0.0000
    202 O          35.4690    1.4450   36.7180 O.3     462 HOH757      0.0000
    203 H1         34.5190    1.4450   36.7180 H       462 HOH757      0.0000
    204 H2         35.7141    2.3628   36.7180 H       462 HOH757      0.0000
    205 O          38.9650   -3.3750   39.5950 O.3     463 HOH758      0.0000
    206 H1         38.0150   -3.3750   39.5950 H       463 HOH758      0.0000
    207 H2         39.2101   -2.4572   39.5950 H       463 HOH758      0.0000
    208 O          21.0060  -13.2070   41.3770 O.3     464 HOH766      0.0000
    209 H1         20.0560  -13.2070   41.3770 H       464 HOH766      0.0000
    210 H2         21.2511  -12.2892   41.3770 H       464 HOH766      0.0000
    211 O          18.3740  -11.3420   48.4710 O.3     465 HOH767      0.0000
    212 H1         17.4240  -11.3420   48.4710 H       465 HOH767      0.0000
    213 H2         18.6191  -10.4242   48.4710 H       465 HOH767      0.0000
    214 O          21.4610  -17.5050   53.7920 O.3     466 HOH770      0.0000
    215 H1         20.5110  -17.5050   53.7920 H       466 HOH770      0.0000
    216 H2         21.7061  -16.5872   53.7920 H       466 HOH770      0.0000
    217 O          20.7440  -12.5710   49.6390 O.3     467 HOH774      0.0000
    218 H1         19.7940  -12.5710   49.6390 H       467 HOH774      0.0000
    219 H2         20.9891  -11.6532   49.6390 H       467 HOH774      0.0000
    220 O          38.4080  -17.3680   50.4280 O.3     468 HOH779      0.0000
    221 H1         37.4580  -17.3680   50.4280 H       468 HOH779      0.0000
    222 H2         38.6531  -16.4502   50.4280 H       468 HOH779      0.0000
    223 O          42.6030  -15.2570   45.2190 O.3     469 HOH780      0.0000
    224 H1         41.6530  -15.2570   45.2190 H       469 HOH780      0.0000
    225 H2         42.8481  -14.3392   45.2190 H       469 HOH780      0.0000
    226 O          39.8270  -18.0130   44.1910 O.3     470 HOH781      0.0000
    227 H1         38.8770  -18.0130   44.1910 H       470 HOH781      0.0000
    228 H2         40.0721  -17.0952   44.1910 H       470 HOH781      0.0000
    229 O          39.4070  -25.2950   27.1900 O.3     471 HOH782      0.0000
    230 H1         38.4570  -25.2950   27.1900 H       471 HOH782      0.0000
    231 H2         39.6521  -24.3772   27.1900 H       471 HOH782      0.0000
    232 O          24.7550  -22.2040   36.1620 O.3     472 HOH786      0.0000
    233 H1         23.8050  -22.2040   36.1620 H       472 HOH786      0.0000
    234 H2         25.0001  -21.2862   36.1620 H       472 HOH786      0.0000
    235 O          26.8770  -21.2020   59.2520 O.3     473 HOH793      0.0000
    236 H1         25.9270  -21.2020   59.2520 H       473 HOH793      0.0000
    237 H2         27.1221  -20.2842   59.2520 H       473 HOH793      0.0000
    238 O          21.7150  -26.8030   63.0390 O.3     474 HOH798      0.0000
    239 H1         20.7650  -26.8030   63.0390 H       474 HOH798      0.0000
    240 H2         21.9601  -25.8852   63.0390 H       474 HOH798      0.0000
    241 O          28.6700  -27.0900   56.3910 O.3     475 HOH800      0.0000
    242 H1         27.7200  -27.0900   56.3910 H       475 HOH800      0.0000
    243 H2         28.9151  -26.1722   56.3910 H       475 HOH800      0.0000
    244 O          20.5900  -26.9710   50.2300 O.3     476 HOH816      0.0000
    245 H1         19.6400  -26.9710   50.2300 H       476 HOH816      0.0000
    246 H2         20.8351  -26.0532   50.2300 H       476 HOH816      0.0000
    247 O          26.6830  -29.1490   56.0820 O.3     477 HOH817      0.0000
    248 H1         25.7330  -29.1490   56.0820 H       477 HOH817      0.0000
    249 H2         26.9281  -28.2312   56.0820 H       477 HOH817      0.0000
    250 O          34.4210  -24.5330   62.5490 O.3     478 HOH825      0.0000
    251 H1         33.4710  -24.5330   62.5490 H       478 HOH825      0.0000
    252 H2         34.6661  -23.6152   62.5490 H       478 HOH825      0.0000
    253 O          30.3160  -32.3150   64.2290 O.3     479 HOH828      0.0000
    254 H1         29.3660  -32.3150   64.2290 H       479 HOH828      0.0000
    255 H2         30.5611  -31.3972   64.2290 H       479 HOH828      0.0000
    256 O          31.9000  -36.0740   59.1830 O.3     480 HOH830      0.0000
    257 H1         30.9500  -36.0740   59.1830 H       480 HOH830      0.0000
    258 H2         32.1451  -35.1562   59.1830 H       480 HOH830      0.0000
    259 O          32.4460  -18.2720   56.3910 O.3     481 HOH850      0.0000
    260 H1         31.4960  -18.2720   56.3910 H       481 HOH850      0.0000
    261 H2         32.6911  -17.3542   56.3910 H       481 HOH850      0.0000
    262 O          39.2560  -19.1910   48.4750 O.3     482 HOH852      0.0000
    263 H1         38.3060  -19.1910   48.4750 H       482 HOH852      0.0000
    264 H2         39.5011  -18.2732   48.4750 H       482 HOH852      0.0000
    265 O          44.3630  -22.9040   43.2760 O.3     483 HOH854      0.0000
    266 H1         43.4130  -22.9040   43.2760 H       483 HOH854      0.0000
    267 H2         44.6081  -21.9862   43.2760 H       483 HOH854      0.0000
    268 O          46.2980  -29.2210   42.2340 O.3     484 HOH855      0.0000
    269 H1         45.3480  -29.2210   42.2340 H       484 HOH855      0.0000
    270 H2         46.5431  -28.3032   42.2340 H       484 HOH855      0.0000
    271 O          41.4200  -28.9870   30.5190 O.3     485 HOH858      0.0000
    272 H1         40.4700  -28.9870   30.5190 H       485 HOH858      0.0000
    273 H2         41.6651  -28.0692   30.5190 H       485 HOH858      0.0000
    274 O          32.5080  -30.0860   48.3680 O.3     486 HOH865      0.0000
    275 H1         31.5580  -30.0860   48.3680 H       486 HOH865      0.0000
    276 H2         32.7531  -29.1682   48.3680 H       486 HOH865      0.0000
    277 O          34.7170  -23.8770   57.0560 O.3     487 HOH866      0.0000
    278 H1         33.7670  -23.8770   57.0560 H       487 HOH866      0.0000
    279 H2         34.9621  -22.9592   57.0560 H       487 HOH866      0.0000
    280 O          35.4560  -23.0360   60.2010 O.3     488 HOH867      0.0000
    281 H1         34.5060  -23.0360   60.2010 H       488 HOH867      0.0000
    282 H2         35.7011  -22.1182   60.2010 H       488 HOH867      0.0000
    283 O          33.6730  -30.6030   46.1350 O.3     489 HOH884      0.0000
    284 H1         32.7230  -30.6030   46.1350 H       489 HOH884      0.0000
    285 H2         33.9181  -29.6852   46.1350 H       489 HOH884      0.0000
    286 O          27.8140  -30.0780   51.5430 O.3     490 HOH887      0.0000
    287 H1         26.8640  -30.0780   51.5430 H       490 HOH887      0.0000
    288 H2         28.0591  -29.1602   51.5430 H       490 HOH887      0.0000
    289 O          30.6360  -32.2360   46.4220 O.3     491 HOH890      0.0000
    290 H1         29.6860  -32.2360   46.4220 H       491 HOH890      0.0000
    291 H2         30.8811  -31.3182   46.4220 H       491 HOH890      0.0000
    292 O          30.0680  -31.0670   49.5580 O.3     492 HOH891      0.0000
    293 H1         29.1180  -31.0670   49.5580 H       492 HOH891      0.0000
    294 H2         30.3131  -30.1492   49.5580 H       492 HOH891      0.0000
    295 O          29.1820  -33.1800   50.6210 O.3     493 HOH892      0.0000
    296 H1         28.2320  -33.1800   50.6210 H       493 HOH892      0.0000
    297 H2         29.4271  -32.2622   50.6210 H       493 HOH892      0.0000
    298 O          46.2950  -33.6310   54.0820 O.3     494 HOH896      0.0000
    299 H1         45.3450  -33.6310   54.0820 H       494 HOH896      0.0000
    300 H2         46.5401  -32.7132   54.0820 H       494 HOH896      0.0000
    301 O          42.0860  -34.7060   71.7730 O.3     495 HOH903      0.0000
    302 H1         41.1360  -34.7060   71.7730 H       495 HOH903      0.0000
    303 H2         42.3311  -33.7882   71.7730 H       495 HOH903      0.0000
    304 O          48.3850  -20.1210   71.9190 O.3     496 HOH905      0.0000
    305 H1         47.4350  -20.1210   71.9190 H       496 HOH905      0.0000
    306 H2         48.6301  -19.2032   71.9190 H       496 HOH905      0.0000
    307 O          37.2260  -20.8660   61.4760 O.3     497 HOH910      0.0000
    308 H1         36.2760  -20.8660   61.4760 H       497 HOH910      0.0000
    309 H2         37.4711  -19.9482   61.4760 H       497 HOH910      0.0000
    310 O          39.6450  -20.4890   46.1060 O.3     498 HOH914      0.0000
    311 H1         38.6950  -20.4890   46.1060 H       498 HOH914      0.0000
    312 H2         39.8901  -19.5712   46.1060 H       498 HOH914      0.0000
    313 O          56.5830  -22.3130   38.0380 O.3     499 HOH917      0.0000
    314 H1         55.6330  -22.3130   38.0380 H       499 HOH917      0.0000
    315 H2         56.8281  -21.3952   38.0380 H       499 HOH917      0.0000
    316 O          43.6450  -17.8380   41.8160 O.3     500 HOH921      0.0000
    317 H1         42.6950  -17.8380   41.8160 H       500 HOH921      0.0000
    318 H2         43.8901  -16.9202   41.8160 H       500 HOH921      0.0000
    319 O          51.3170  -13.9330   68.5440 O.3     501 HOH930      0.0000
    320 H1         50.3670  -13.9330   68.5440 H       501 HOH930      0.0000
    321 H2         51.5621  -13.0152   68.5440 H       501 HOH930      0.0000
    322 O          47.1670  -17.8570   73.4460 O.3     502 HOH931      0.0000
    323 H1         46.2170  -17.8570   73.4460 H       502 HOH931      0.0000
    324 H2         47.4121  -16.9392   73.4460 H       502 HOH931      0.0000
    325 O          41.9500  -11.4900   75.6350 O.3     503 HOH934      0.0000
    326 H1         41.0000  -11.4900   75.6350 H       503 HOH934      0.0000
    327 H2         42.1951  -10.5722   75.6350 H       503 HOH934      0.0000
    328 O          34.4820   -2.2820   81.5720 O.3     504 HOH936      0.0000
    329 H1         33.5320   -2.2820   81.5720 H       504 HOH936      0.0000
    330 H2         34.7271   -1.3642   81.5720 H       504 HOH936      0.0000
    331 O          40.6930   -7.3620   75.8970 O.3     505 HOH937      0.0000
    332 H1         39.7430   -7.3620   75.8970 H       505 HOH937      0.0000
    333 H2         40.9381   -6.4442   75.8970 H       505 HOH937      0.0000
    334 O          37.3890  -10.9640   69.5410 O.3     506 HOH938      0.0000
    335 H1         36.4390  -10.9640   69.5410 H       506 HOH938      0.0000
    336 H2         37.6341  -10.0462   69.5410 H       506 HOH938      0.0000
    337 O          38.8500   -7.6740   68.4770 O.3     507 HOH939      0.0000
    338 H1         37.9000   -7.6740   68.4770 H       507 HOH939      0.0000
    339 H2         39.0951   -6.7562   68.4770 H       507 HOH939      0.0000
    340 O          49.3320  -12.0200   62.7920 O.3     508 HOH943      0.0000
    341 H1         48.3820  -12.0200   62.7920 H       508 HOH943      0.0000
    342 H2         49.5771  -11.1022   62.7920 H       508 HOH943      0.0000
    343 O          59.4480  -35.5380   66.4280 O.3     509 HOH955      0.0000
    344 H1         58.4980  -35.5380   66.4280 H       509 HOH955      0.0000
    345 H2         59.6931  -34.6202   66.4280 H       509 HOH955      0.0000
    346 O          52.6430  -29.9860   57.9140 O.3     510 HOH956      0.0000
    347 H1         51.6930  -29.9860   57.9140 H       510 HOH956      0.0000
    348 H2         52.8881  -29.0682   57.9140 H       510 HOH956      0.0000
    349 O          48.9330  -27.4190   67.5990 O.3     511 HOH957      0.0000
    350 H1         47.9830  -27.4190   67.5990 H       511 HOH957      0.0000
    351 H2         49.1781  -26.5012   67.5990 H       511 HOH957      0.0000
    352 O          52.1660  -22.5930   75.9350 O.3     512 HOH961      0.0000
    353 H1         51.2160  -22.5930   75.9350 H       512 HOH961      0.0000
    354 H2         52.4111  -21.6752   75.9350 H       512 HOH961      0.0000
    355 O          52.6240  -11.5360   76.6130 O.3     513 HOH963      0.0000
    356 H1         51.6740  -11.5360   76.6130 H       513 HOH963      0.0000
    357 H2         52.8691  -10.6182   76.6130 H       513 HOH963      0.0000
    358 O          57.7600  -10.0770   80.3120 O.3     514 HOH966      0.0000
    359 H1         56.8100  -10.0770   80.3120 H       514 HOH966      0.0000
    360 H2         58.0051   -9.1592   80.3120 H       514 HOH966      0.0000
@<TRIPOS>BOND
     1    1    2 1
     2    1    3 1
     3    4    5 1
     4    4    6 1
     5    7    8 1
     6    7    9 1
     7   10   11 1
     8   10   12 1
     9   13   14 1
    10   13   15 1
    11   16   17 1
    12   16   18 1
    13   19   20 1
    14   19   21 1
    15   22   23 1
    16   22   24 1
    17   25   26 1
    18   25   27 1
    19   28   29 1
    20   28   30 1
    21   31   32 1
    22   31   33 1
    23   34   35 1
    24   34   36 1
    25   37   38 1
    26   37   39 1
    27   40   41 1
    28   40   42 1
    29   43   44 1
    30   43   45 1
    31   46   47 1
    32   46   48 1
    33   49   50 1
    34   49   51 1
    35   52   53 1
    36   52   54 1
    37   55   56 1
    38   55   57 1
    39   58   59 1
    40   58   60 1
    41   61   62 1
    42   61   63 1
    43   64   65 1
    44   64   66 1
    45   67   68 1
    46   67   69 1
    47   70   71 1
    48   70   72 1
    49   73   74 1
    50   73   75 1
    51   76   77 1
    52   76   78 1
    53   79   80 1
    54   79   81 1
    55   82   83 1
    56   82   84 1
    57   85   86 1
    58   85   87 1
    59   88   89 1
    60   88   90 1
    61   91   92 1
    62   91   93 1
    63   94   95 1
    64   94   96 1
    65   97   98 1
    66   97   99 1
    67  100  101 1
    68  100  102 1
    69  103  104 1
    70  103  105 1
    71  106  107 1
    72  106  108 1
    73  109  110 1
    74  109  111 1
    75  112  113 1
    76  112  114 1
    77  115  116 1
    78  115  117 1
    79  118  119 1
    80  118  120 1
    81  121  122 1
    82  121  123 1
    83  124  125 1
    84  124  126 1
    85  127  128 1
    86  127  129 1
    87  130  131 1
    88  130  132 1
    89  133  134 1
    90  133  135 1
    91  136  137 1
    92  136  138 1
    93  139  140 1
    94  139  141 1
    95  142  143 1
    96  142  144 1
    97  145  146 1
    98  145  147 1
    99  148  149 1
   100  148  150 1
   101  151  152 1
   102  151  153 1
   103  154  155 1
   104  154  156 1
   105  157  158 1
   106  157  159 1
   107  160  161 1
   108  160  162 1
   109  163  164 1
   110  163  165 1
   111  166  167 1
   112  166  168 1
   113  169  170 1
   114  169  171 1
   115  172  173 1
   116  172  174 1
   117  175  176 1
   118  175  177 1
   119  178  179 1
   120  178  180 1
   121  181  182 1
   122  181  183 1
   123  184  185 1
   124  184  186 1
   125  187  188 1
   126  187  189 1
   127  190  191 1
   128  190  192 1
   129  193  194 1
   130  193  195 1
   131  196  197 1
   132  196  198 1
   133  199  200 1
   134  199  201 1
   135  202  203 1
   136  202  204 1
   137  205  206 1
   138  205  207 1
   139  208  209 1
   140  208  210 1
   141  211  212 1
   142  211  213 1
   143  214  215 1
   144  214  216 1
   145  217  218 1
   146  217  219 1
   147  220  221 1
   148  220  222 1
   149  223  224 1
   150  223  225 1
   151  226  227 1
   152  226  228 1
   153  229  230 1
   154  229  231 1
   155  232  233 1
   156  232  234 1
   157  235  236 1
   158  235  237 1
   159  238  239 1
   160  238  240 1
   161  241  242 1
   162  241  243 1
   163  244  245 1
   164  244  246 1
   165  247  248 1
   166  247  249 1
   167  250  251 1
   168  250  252 1
   169  253  254 1
   170  253  255 1
   171  256  257 1
   172  256  258 1
   173  259  260 1
   174  259  261 1
   175  262  263 1
   176  262  264 1
   177  265  266 1
   178  265  267 1
   179  268  269 1
   180  268  270 1
   181  271  272 1
   182  271  273 1
   183  274  275 1
   184  274  276 1
   185  277  278 1
   186  277  279 1
   187  280  281 1
   188  280  282 1
   189  283  284 1
   190  283  285 1
   191  286  287 1
   192  286  288 1
   193  289  290 1
   194  289  291 1
   195  292  293 1
   196  292  294 1
   197  295  296 1
   198  295  297 1
   199  298  299 1
   200  298  300 1
   201  301  302 1
   202  301  303 1
   203  304  305 1
   204  304  306 1
   205  307  308 1
   206  307  309 1
   207  310  311 1
   208  310  312 1
   209  313  314 1
   210  313  315 1
   211  316  317 1
   212  316  318 1
   213  319  320 1
   214  319  321 1
   215  322  323 1
   216  322  324 1
   217  325  326 1
   218  325  327 1
   219  328  329 1
   220  328  330 1
   221  331  332 1
   222  331  333 1
   223  334  335 1
   224  334  336 1
   225  337  338 1
   226  337  339 1
   227  340  341 1
   228  340  342 1
   229  343  344 1
   230  343  345 1
   231  346  347 1
   232  346  348 1
   233  349  350 1
   234  349  351 1
   235  352  353 1
   236  352  354 1
   237  355  356 1
   238  355  357 1
   239  358  359 1
   240  358  360 1
@<TRIPOS>SUBSTRUCTURE
395 HOH502 1
396 HOH503 4
397 HOH579 7
398 HOH586 10
399 HOH588 13
400 HOH593 16
401 HOH594 19
402 HOH595 22
403 HOH601 25
404 HOH602 28
405 HOH603 31
406 HOH604 34
407 HOH605 37
408 HOH609 40
409 HOH610 43
410 HOH611 46
411 HOH613 49
412 HOH618 52
413 HOH620 55
414 HOH621 58
415 HOH622 61
416 HOH623 64
417 HOH629 67
418 HOH637 70
419 HOH638 73
420 HOH640 76
421 HOH641 79
422 HOH642 82
423 HOH643 85
424 HOH646 88
425 HOH649 91
426 HOH650 94
427 HOH651 97
428 HOH652 100
429 HOH667 103
430 HOH668 106
431 HOH672 109
432 HOH673 112
433 HOH677 115
434 HOH682 118
435 HOH683 121
436 HOH684 124
437 HOH697 127
438 HOH700 130
439 HOH706 133
440 HOH707 136
441 HOH708 139
442 HOH709 142
443 HOH710 145
444 HOH711 148
445 HOH713 151
446 HOH715 154
447 HOH716 157
448 HOH724 160
449 HOH725 163
450 HOH726 166
451 HOH727 169
452 HOH729 172
453 HOH730 175
454 HOH735 178
455 HOH736 181
456 HOH737 184
457 HOH741 187
458 HOH742 190
459 HOH752 193
460 HOH755 196
461 HOH756 199
462 HOH757 202
463 HOH758 205
464 HOH766 208
465 HOH767 211
466 HOH770 214
467 HOH774 217
468 HOH779 220
469 HOH780 223
470 HOH781 226
471 HOH782 229
472 HOH786 232
473 HOH793 235
474 HOH798 238
475 HOH800 241
476 HOH816 244
477 HOH817 247
478 HOH825 250
479 HOH828 253
480 HOH830 256
481 HOH850 259
482 HOH852 262
483 HOH854 265
484 HOH855 268
485 HOH858 271
486 HOH865 274
487 HOH866 277
488 HOH867 280
489 HOH884 283
490 HOH887 286
491 HOH890 289
492 HOH891 292
493 HOH892 295
494 HOH896 298
495 HOH903 301
496 HOH905 304
497 HOH910 307
498 HOH914 310
499 HOH917 313
500 HOH921 316
501 HOH930 319
502 HOH931 322
503 HOH934 325
504 HOH936 328
505 HOH937 331
506 HOH938 334
507 HOH939 337
508 HOH943 340
509 HOH955 343
510 HOH956 346
511 HOH957 349
512 HOH961 352
513 HOH963 355
514 HOH966 358
@<TRIPOS>COMMENT


