@<TRIPOS>MOLECULE
129821 CHEMBL81286
54 55 1
SMALL
GASTEIGER

@<TRIPOS>DICT

@<TRIPOS>ATOM
      1 C           7.5277   -1.3618    5.4895 C.3       1 LIG11       0.0000
      2 C           6.3897   -2.3530    5.2555 C.3       1 LIG11       0.0000
      3 C           5.0617   -1.9589    5.9380 C.3       1 LIG11       0.0000
      4 C           5.3070   -1.8056    7.4679 C.3       1 LIG11       0.0000
      5 C           4.0485   -1.4245    8.2592 C.3       1 LIG11       0.0000
      6 C           4.3112   -1.2150    9.7394 C.ar      1 LIG11       0.0000
      7 C           4.7595   -2.2637   10.5554 C.ar      1 LIG11       0.0000
      8 C           5.0466   -2.0451   11.9074 C.ar      1 LIG11       0.0000
      9 C           4.8699   -0.7816   12.4670 C.ar      1 LIG11       0.0000
     10 C           4.3822    0.2584   11.6805 C.ar      1 LIG11       0.0000
     11 C           4.1035    0.0431   10.3268 C.ar      1 LIG11       0.0000
     12 O           4.4697   -0.7430    5.4586 O.3       1 LIG11       0.0000
     13 C           4.1765   -0.5703    4.0635 C.3       1 LIG11       0.0000
     14 C           3.6548    0.8358    3.9530 C.2       1 LIG11       0.0000
     15 C           2.3361    1.1451    4.1061 C.2       1 LIG11       0.0000
     16 C           1.8096    2.5249    3.9680 C.2       1 LIG11       0.0000
     17 O           2.8058    3.4091    3.6671 O.co2     1 LIG11       0.0000
     18 O           0.6570    2.8768    4.0646 O.co2     1 LIG11       0.0000
     19 C           1.3640    0.0531    4.4530 C.3       1 LIG11       0.0000
     20 C           1.6450   -1.2535    3.6881 C.3       1 LIG11       0.0000
     21 N           0.9313   -2.3800    4.3182 N.4       1 LIG11       0.0000
     22 C           3.1620   -1.5667    3.4081 C.3       1 LIG11       0.0000
     23 N           3.3343   -1.6153    1.9280 N.am      1 LIG11       0.0000
     24 C           4.2162   -2.4496    1.2873 C.2       1 LIG11       0.0000
     25 C           4.1661   -2.3742   -0.2219 C.3       1 LIG11       0.0000
     26 O           4.9594   -3.2233    1.8800 O.2       1 LIG11       0.0000
     27 H           8.4080   -1.7044    4.9870 H         1 LIG11       0.0000
     28 H           7.7232   -1.2844    6.5386 H         1 LIG11       0.0000
     29 H           7.2492   -0.4022    5.1069 H         1 LIG11       0.0000
     30 H           6.6919   -3.3073    5.6336 H         1 LIG11       0.0000
     31 H           6.2036   -2.3668    4.2019 H         1 LIG11       0.0000
     32 H           4.3739   -2.7442    5.7032 H         1 LIG11       0.0000
     33 H           6.0435   -1.0440    7.6173 H         1 LIG11       0.0000
     34 H           5.6273   -2.7600    7.8305 H         1 LIG11       0.0000
     35 H           3.3281   -2.2080    8.1496 H         1 LIG11       0.0000
     36 H           3.6955   -0.4945    7.8650 H         1 LIG11       0.0000
     37 H           4.8790   -3.2071   10.1544 H         1 LIG11       0.0000
     38 H           5.3905   -2.8228   12.4922 H         1 LIG11       0.0000
     39 H           5.0994   -0.6174   13.4597 H         1 LIG11       0.0000
     40 H           4.2260    1.1897   12.0969 H         1 LIG11       0.0000
     41 H           3.7403    0.8195    9.7521 H         1 LIG11       0.0000
     42 H           5.0749   -0.7730    3.5187 H         1 LIG11       0.0000
     43 H           4.3221    1.5973    3.7532 H         1 LIG11       0.0000
     44 H           0.3755    0.3851    4.2131 H         1 LIG11       0.0000
     45 H           1.4676   -0.1538    5.4977 H         1 LIG11       0.0000
     46 H           1.2528   -1.1028    2.7040 H         1 LIG11       0.0000
     47 H           1.2981   -2.5320    5.2577 H         1 LIG11       0.0000
     48 H           1.0663   -3.2229    3.7600 H         1 LIG11       0.0000
     49 H          -0.0641   -2.1641    4.3726 H         1 LIG11       0.0000
     50 H           3.3955   -2.5030    3.8703 H         1 LIG11       0.0000
     51 H           2.7829   -1.0134    1.3776 H         1 LIG11       0.0000
     52 H           3.4518   -1.6349   -0.5186 H         1 LIG11       0.0000
     53 H           3.8792   -3.3262   -0.6172 H         1 LIG11       0.0000
     54 H           5.1319   -2.1082   -0.5980 H         1 LIG11       0.0000
@<TRIPOS>BOND
     1    1    2 1
     2    2    3 1
     3    3    4 1
     4    4    5 1
     5    5    6 1
     6    6    7 ar
     7    7    8 ar
     8    8    9 ar
     9    9   10 ar
    10   10   11 ar
    11    6   11 ar
    12    3   12 1
    13   13   14 1
    14   14   15 2
    15   15   16 1
    16   16   17 ar
    17   16   18 ar
    18   15   19 1
    19   19   20 1
    20   20   21 1
    21   20   22 1
    22   13   22 1
    23   22   23 1
    24   23   24 am
    25   24   25 1
    26   24   26 2
    27   13   12 1
    28    1   27 1
    29    1   28 1
    30    1   29 1
    31    2   30 1
    32    2   31 1
    33    3   32 1
    34    4   33 1
    35    4   34 1
    36    5   35 1
    37    5   36 1
    38    7   37 1
    39    8   38 1
    40    9   39 1
    41   10   40 1
    42   11   41 1
    43   13   42 1
    44   14   43 1
    45   19   44 1
    46   19   45 1
    47   20   46 1
    48   21   47 1
    49   21   48 1
    50   21   49 1
    51   22   50 1
    52   23   51 1
    53   25   52 1
    54   25   53 1
    55   25   54 1
@<TRIPOS>SUBSTRUCTURE
1 LIG11 1
@<TRIPOS>COMMENT
0.0000



