@<TRIPOS>MOLECULE
1b9v_ligand_0
29 29 1
SMALL
GASTEIGER


@<TRIPOS>ATOM
      1 C1         41.2180  -17.9720   33.1230 C.3     391 NAG467      0.0000
      2 O5         41.2070  -17.3570   31.8260 O.3     391 NAG467      0.0000
      3 C2         41.3930  -19.4680   32.9240 C.3     391 NAG467      0.0000
      4 H11        40.2665  -17.7502   33.6284 H       391 NAG467      0.0000
      5 H12        42.0501  -17.5521   33.7072 H       391 NAG467      0.0000
      6 C5         42.5230  -17.2880   31.2180 C.3     391 NAG467      0.0000
      7 N2         41.0810  -20.0850   34.2130 N.am    391 NAG467      0.0000
      8 C3         42.8700  -19.5860   32.4030 C.3     391 NAG467      0.0000
      9 H2         40.7041  -19.8254   32.1445 H       391 NAG467      0.0000
     10 C4         43.0860  -18.7240   31.0480 C.3     391 NAG467      0.0000
     11 C6         42.3870  -16.4240   29.9830 C.3     391 NAG467      0.0000
     12 H5         43.1936  -16.7621   31.9136 H       391 NAG467      0.0000
     13 C7         40.8720  -21.3820   34.4090 C.2     391 NAG467      0.0000
     14 H2         41.0203  -19.4831   35.0092 H       391 NAG467      0.0000
     15 O3         43.1520  -20.9550   32.1710 O.3     391 NAG467      0.0000
     16 H3         43.5432  -19.1790   33.1719 H       391 NAG467      0.0000
     17 O4         44.4480  -18.6040   30.6540 O.3     391 NAG467      0.0000
     18 H4         42.5128  -19.2212   30.2516 H       391 NAG467      0.0000
     19 O6         41.6350  -15.2770   30.3430 O.3     391 NAG467      0.0000
     20 H61        41.8542  -16.9570   29.1817 H       391 NAG467      0.0000
     21 H62        43.3713  -16.0984   29.6153 H       391 NAG467      0.0000
     22 C8         40.5580  -21.8110   35.8220 C.3     391 NAG467      0.0000
     23 O7         40.9300  -22.2150   33.5080 O.2     391 NAG467      0.0000
     24 H3         44.0997  -21.0066   32.1309 H       391 NAG467      0.0000
     25 H4         44.6020  -17.6690   30.5861 H       391 NAG467      0.0000
     26 H6         40.7374  -15.5820   30.4052 H       391 NAG467      0.0000
     27 H81        41.3186  -22.5277   36.1652 H       391 NAG467      0.0000
     28 H82        40.5598  -20.9306   36.4815 H       391 NAG467      0.0000
     29 H83        39.5668  -22.2873   35.8489 H       391 NAG467      0.0000
@<TRIPOS>BOND
     1    1    2 1
     2    1    3 1
     3    3    7 1
     4    3    8 1
     5    8   10 1
     6    8   15 1
     7   10    6 1
     8   10   17 1
     9    6    2 1
    10    6   11 1
    11   11   19 1
    12   13   22 1
    13   13    7 am
    14   13   23 2
    15    1    4 1
    16    1    5 1
    17    3    9 1
    18    8   16 1
    19   10   18 1
    20    6   12 1
    21   11   20 1
    22   11   21 1
    23   22   27 1
    24   22   28 1
    25   22   29 1
    26    7   14 1
    27   15   24 1
    28   17   25 1
    29   19   26 1
@<TRIPOS>SUBSTRUCTURE
391 NAG467 1
@<TRIPOS>COMMENT


