@<TRIPOS>MOLECULE
1b9v_ligand_1
50 51 1
SMALL
GASTEIGER


@<TRIPOS>ATOM
      1 C1         33.8750   -9.4120   65.0710 C.ar    394 RA2468      0.0000
      2 C2         32.6830   -9.1850   64.3260 C.ar    394 RA2468      0.0000
      3 C6         34.0310  -10.5980   65.8420 C.ar    394 RA2468      0.0000
      4 H1         34.6701   -8.6755   65.0507 H       394 RA2468      0.0000
      5 N11        32.5210   -8.0310   63.5490 N.am    394 RA2468      0.0000
      6 C3         31.6360  -10.1660   64.3690 C.ar    394 RA2468      0.0000
      7 C5         32.9940  -11.5710   65.8730 C.ar    394 RA2468      0.0000
      8 H6         34.9419  -10.7601   66.4068 H       394 RA2468      0.0000
      9 C29        33.0660   -7.7960   62.1590 C.3     394 RA2468      0.0000
     10 C32        31.7970   -6.9540   63.9980 C.2     394 RA2468      0.0000
     11 C4         31.8140  -11.3380   65.1410 C.ar    394 RA2468      0.0000
     12 N12        30.4840   -9.9330   63.6410 N.pl3   394 RA2468      0.0000
     13 C10        33.1340  -12.8250   66.6530 C.2     394 RA2468      0.0000
     14 C30        32.0960   -6.7030   61.6670 C.3     394 RA2468      0.0000
     15 C42        34.5150   -7.2100   62.1450 C.3     394 RA2468      0.0000
     16 C38        33.0290   -9.0750   61.2490 C.3     394 RA2468      0.0000
     17 C31        31.7780   -5.8770   62.9210 C.3     394 RA2468      0.0000
     18 O37        31.2300   -6.8410   65.0770 O.2     394 RA2468      0.0000
     19 H4         31.0208  -12.0763   65.1698 H       394 RA2468      0.0000
     20 C13        29.1840  -10.6300   63.7590 C.3     394 RA2468      0.0000
     21 H12        30.5368   -9.1865   62.9333 H       394 RA2468      0.0000
     22 O49        32.0780  -13.6760   66.5930 O.co2   394 RA2468     -0.5000
     23 O50        34.1150  -13.0700   67.2850 O.co2   394 RA2468     -0.5000
     24 H301       31.1794   -7.1512   61.2559 H       394 RA2468      0.0000
     25 H302       32.5727   -6.0747   60.9002 H       394 RA2468      0.0000
     26 O43        35.1150   -7.1970   63.4350 O.3     394 RA2468      0.0000
     27 H421       34.5091   -6.1684   61.7913 H       394 RA2468      0.0000
     28 H422       35.1712   -7.8126   61.4999 H       394 RA2468      0.0000
     29 O39        31.7020   -9.4880   60.9290 O.3     394 RA2468      0.0000
     30 H381       33.5074   -9.9263   61.7555 H       394 RA2468      0.0000
     31 H382       33.5365   -8.8856   60.2916 H       394 RA2468      0.0000
     32 H311       30.7904   -5.3977   62.8509 H       394 RA2468      0.0000
     33 H312       32.5450   -5.1108   63.1069 H       394 RA2468      0.0000
     34 C14        29.2160  -11.9210   62.8880 C.3     394 RA2468      0.0000
     35 C21        28.0610   -9.6490   63.3340 C.3     394 RA2468      0.0000
     36 H13        29.0172  -10.9205   64.8068 H       394 RA2468      0.0000
     37 H43        35.1985   -6.2771   63.6572 H       394 RA2468      0.0000
     38 H39        31.7467  -10.4354   60.8740 H       394 RA2468      0.0000
     39 C15        27.9490  -12.7780   62.9190 C.3     394 RA2468      0.0000
     40 H141       30.0484  -12.5508   63.2351 H       394 RA2468      0.0000
     41 H142       29.3897  -11.6274   61.8422 H       394 RA2468      0.0000
     42 C23        27.7650   -8.5320   64.3440 C.3     394 RA2468      0.0000
     43 H211       27.1355  -10.2249   63.1865 H       394 RA2468      0.0000
     44 H212       28.3544   -9.1770   62.3847 H       394 RA2468      0.0000
     45 H151       28.2264  -13.8424   62.9264 H       394 RA2468      0.0000
     46 H152       27.3699  -12.5437   63.8244 H       394 RA2468      0.0000
     47 H153       27.3397  -12.5641   62.0285 H       394 RA2468      0.0000
     48 H231       26.6918   -8.5308   64.5853 H       394 RA2468      0.0000
     49 H232       28.3469   -8.7037   65.2616 H       394 RA2468      0.0000
     50 H233       28.0441   -7.5610   63.9091 H       394 RA2468      0.0000
@<TRIPOS>BOND
     1    1    2 ar
     2    1    3 ar
     3    2    5 1
     4    2    6 ar
     5    6   11 ar
     6    6   12 1
     7   11    7 ar
     8    7    3 ar
     9    7   13 1
    10   13   22 ar
    11   13   23 ar
    12    5    9 1
    13    5   10 am
    14   12   20 1
    15   20   34 1
    16   20   35 1
    17   34   39 1
    18   35   42 1
    19    9   14 1
    20    9   15 1
    21    9   16 1
    22   14   17 1
    23   17   10 1
    24   10   18 2
    25   16   29 1
    26   15   26 1
    27    1    4 1
    28   11   19 1
    29    3    8 1
    30   20   36 1
    31   34   40 1
    32   34   41 1
    33   39   45 1
    34   39   46 1
    35   39   47 1
    36   35   43 1
    37   35   44 1
    38   42   48 1
    39   42   49 1
    40   42   50 1
    41   14   24 1
    42   14   25 1
    43   17   32 1
    44   17   33 1
    45   16   30 1
    46   16   31 1
    47   15   27 1
    48   15   28 1
    49   12   21 1
    50   29   38 1
    51   26   37 1
@<TRIPOS>SUBSTRUCTURE
394 RA2468 1
@<TRIPOS>COMMENT


