@<TRIPOS>MOLECULE
1b9v_water
321 214 107
SMALL
GASTEIGER


@<TRIPOS>ATOM
      1 O          25.8010  -22.1560   64.7580 O.3     395 HOH502      0.0000
      2 H1         24.8510  -22.1560   64.7580 H       395 HOH502      0.0000
      3 H2         26.0461  -21.2382   64.7580 H       395 HOH502      0.0000
      4 O          51.8930  -27.4750   38.6790 O.3     396 HOH588      0.0000
      5 H1         50.9430  -27.4750   38.6790 H       396 HOH588      0.0000
      6 H2         52.1381  -26.5572   38.6790 H       396 HOH588      0.0000
      7 O          53.7200  -32.7750   51.0550 O.3     397 HOH593      0.0000
      8 H1         52.7700  -32.7750   51.0550 H       397 HOH593      0.0000
      9 H2         53.9651  -31.8572   51.0550 H       397 HOH593      0.0000
     10 O          57.3140  -25.7380   62.4390 O.3     398 HOH594      0.0000
     11 H1         56.3640  -25.7380   62.4390 H       398 HOH594      0.0000
     12 H2         57.5591  -24.8202   62.4390 H       398 HOH594      0.0000
     13 O          55.9620   -4.2050   55.0950 O.3     399 HOH595      0.0000
     14 H1         55.0120   -4.2050   55.0950 H       399 HOH595      0.0000
     15 H2         56.2071   -3.2872   55.0950 H       399 HOH595      0.0000
     16 O          54.7160  -12.6070   74.5990 O.3     400 HOH601      0.0000
     17 H1         53.7660  -12.6070   74.5990 H       400 HOH601      0.0000
     18 H2         54.9611  -11.6892   74.5990 H       400 HOH601      0.0000
     19 O          60.9010  -12.6450   72.7520 O.3     401 HOH602      0.0000
     20 H1         59.9510  -12.6450   72.7520 H       401 HOH602      0.0000
     21 H2         61.1461  -11.7272   72.7520 H       401 HOH602      0.0000
     22 O          58.2420   -6.1340   73.6610 O.3     402 HOH603      0.0000
     23 H1         57.2920   -6.1340   73.6610 H       402 HOH603      0.0000
     24 H2         58.4871   -5.2162   73.6610 H       402 HOH603      0.0000
     25 O          53.6110   -7.5920   77.4740 O.3     403 HOH604      0.0000
     26 H1         52.6610   -7.5920   77.4740 H       403 HOH604      0.0000
     27 H2         53.8561   -6.6742   77.4740 H       403 HOH604      0.0000
     28 O          61.2510   -9.6210   73.2410 O.3     404 HOH605      0.0000
     29 H1         60.3010   -9.6210   73.2410 H       404 HOH605      0.0000
     30 H2         61.4961   -8.7032   73.2410 H       404 HOH605      0.0000
     31 O          60.9270   -4.4190   67.9370 O.3     405 HOH609      0.0000
     32 H1         59.9770   -4.4190   67.9370 H       405 HOH609      0.0000
     33 H2         61.1721   -3.5012   67.9370 H       405 HOH609      0.0000
     34 O          61.7970   -7.2070   71.8290 O.3     406 HOH610      0.0000
     35 H1         60.8470   -7.2070   71.8290 H       406 HOH610      0.0000
     36 H2         62.0421   -6.2892   71.8290 H       406 HOH610      0.0000
     37 O          58.5300   -3.2470   66.9320 O.3     407 HOH611      0.0000
     38 H1         57.5800   -3.2470   66.9320 H       407 HOH611      0.0000
     39 H2         58.7751   -2.3292   66.9320 H       407 HOH611      0.0000
     40 O          50.5870   -8.1360   64.7980 O.3     408 HOH613      0.0000
     41 H1         49.6370   -8.1360   64.7980 H       408 HOH613      0.0000
     42 H2         50.8321   -7.2182   64.7980 H       408 HOH613      0.0000
     43 O          39.6570  -13.1080   59.0990 O.3     409 HOH618      0.0000
     44 H1         38.7070  -13.1080   59.0990 H       409 HOH618      0.0000
     45 H2         39.9021  -12.1902   59.0990 H       409 HOH618      0.0000
     46 O          41.7840  -14.1820   52.2280 O.3     410 HOH620      0.0000
     47 H1         40.8340  -14.1820   52.2280 H       410 HOH620      0.0000
     48 H2         42.0291  -13.2642   52.2280 H       410 HOH620      0.0000
     49 O          44.4330  -14.0440   47.6380 O.3     411 HOH621      0.0000
     50 H1         43.4830  -14.0440   47.6380 H       411 HOH621      0.0000
     51 H2         44.6781  -13.1262   47.6380 H       411 HOH621      0.0000
     52 O          44.5370  -10.5340   45.6490 O.3     412 HOH622      0.0000
     53 H1         43.5870  -10.5340   45.6490 H       412 HOH622      0.0000
     54 H2         44.7821   -9.6162   45.6490 H       412 HOH622      0.0000
     55 O          51.1830  -13.9270   45.6470 O.3     413 HOH623      0.0000
     56 H1         50.2330  -13.9270   45.6470 H       413 HOH623      0.0000
     57 H2         51.4281  -13.0092   45.6470 H       413 HOH623      0.0000
     58 O          53.3360  -11.1860   57.5020 O.3     414 HOH629      0.0000
     59 H1         52.3860  -11.1860   57.5020 H       414 HOH629      0.0000
     60 H2         53.5811  -10.2682   57.5020 H       414 HOH629      0.0000
     61 O          48.1630   -0.5000   74.5340 O.3     415 HOH637      0.0000
     62 H1         47.2130   -0.5000   74.5340 H       415 HOH637      0.0000
     63 H2         48.4081    0.4178   74.5340 H       415 HOH637      0.0000
     64 O          55.1340   -1.7620   72.5930 O.3     416 HOH638      0.0000
     65 H1         54.1840   -1.7620   72.5930 H       416 HOH638      0.0000
     66 H2         55.3791   -0.8442   72.5930 H       416 HOH638      0.0000
     67 O          41.5470    2.0570   75.7280 O.3     417 HOH640      0.0000
     68 H1         40.5970    2.0570   75.7280 H       417 HOH640      0.0000
     69 H2         41.7921    2.9748   75.7280 H       417 HOH640      0.0000
     70 O          41.5480    3.2860   73.7860 O.3     418 HOH641      0.0000
     71 H1         40.5980    3.2860   73.7860 H       418 HOH641      0.0000
     72 H2         41.7931    4.2038   73.7860 H       418 HOH641      0.0000
     73 O          42.1700    0.4350   72.7360 O.3     419 HOH642      0.0000
     74 H1         41.2200    0.4350   72.7360 H       419 HOH642      0.0000
     75 H2         42.4151    1.3528   72.7360 H       419 HOH642      0.0000
     76 O          51.4620   -5.5660   78.8570 O.3     420 HOH643      0.0000
     77 H1         50.5120   -5.5660   78.8570 H       420 HOH643      0.0000
     78 H2         51.7071   -4.6482   78.8570 H       420 HOH643      0.0000
     79 O          38.8560   -7.4880   68.4080 O.3     421 HOH646      0.0000
     80 H1         37.9060   -7.4880   68.4080 H       421 HOH646      0.0000
     81 H2         39.1011   -6.5702   68.4080 H       421 HOH646      0.0000
     82 O          37.1360   -8.0830   66.4900 O.3     422 HOH649      0.0000
     83 H1         36.1860   -8.0830   66.4900 H       422 HOH649      0.0000
     84 H2         37.3811   -7.1652   66.4900 H       422 HOH649      0.0000
     85 O          36.7520    2.6720   62.9550 O.3     423 HOH650      0.0000
     86 H1         35.8020    2.6720   62.9550 H       423 HOH650      0.0000
     87 H2         36.9971    3.5898   62.9550 H       423 HOH650      0.0000
     88 O          39.1570    8.3170   65.3520 O.3     424 HOH652      0.0000
     89 H1         38.2070    8.3170   65.3520 H       424 HOH652      0.0000
     90 H2         39.4021    9.2348   65.3520 H       424 HOH652      0.0000
     91 O          53.7580    2.5230   60.2810 O.3     425 HOH667      0.0000
     92 H1         52.8080    2.5230   60.2810 H       425 HOH667      0.0000
     93 H2         54.0031    3.4408   60.2810 H       425 HOH667      0.0000
     94 O          61.8270    4.7080   65.7590 O.3     426 HOH668      0.0000
     95 H1         60.8770    4.7080   65.7590 H       426 HOH668      0.0000
     96 H2         62.0721    5.6258   65.7590 H       426 HOH668      0.0000
     97 O          46.0350    6.6400   53.1760 O.3     427 HOH673      0.0000
     98 H1         45.0850    6.6400   53.1760 H       427 HOH673      0.0000
     99 H2         46.2801    7.5578   53.1760 H       427 HOH673      0.0000
    100 O          42.4600   -3.7980   42.6950 O.3     428 HOH682      0.0000
    101 H1         41.5100   -3.7980   42.6950 H       428 HOH682      0.0000
    102 H2         42.7051   -2.8802   42.6950 H       428 HOH682      0.0000
    103 O          41.3660   -8.5860   37.5720 O.3     429 HOH684      0.0000
    104 H1         40.4160   -8.5860   37.5720 H       429 HOH684      0.0000
    105 H2         41.6111   -7.6682   37.5720 H       429 HOH684      0.0000
    106 O          31.7430    6.8170   58.2870 O.3     430 HOH694      0.0000
    107 H1         30.7930    6.8170   58.2870 H       430 HOH694      0.0000
    108 H2         31.9881    7.7348   58.2870 H       430 HOH694      0.0000
    109 O          29.9110    1.7620   66.0700 O.3     431 HOH697      0.0000
    110 H1         28.9610    1.7620   66.0700 H       431 HOH697      0.0000
    111 H2         30.1561    2.6798   66.0700 H       431 HOH697      0.0000
    112 O          25.1800    4.2430   55.4710 O.3     432 HOH700      0.0000
    113 H1         24.2300    4.2430   55.4710 H       432 HOH700      0.0000
    114 H2         25.4251    5.1608   55.4710 H       432 HOH700      0.0000
    115 O          44.0670    5.5480   42.9480 O.3     433 HOH706      0.0000
    116 H1         43.1170    5.5480   42.9480 H       433 HOH706      0.0000
    117 H2         44.3121    6.4658   42.9480 H       433 HOH706      0.0000
    118 O          45.6390    7.7660   50.1610 O.3     434 HOH707      0.0000
    119 H1         44.6890    7.7660   50.1610 H       434 HOH707      0.0000
    120 H2         45.8841    8.6838   50.1610 H       434 HOH707      0.0000
    121 O          36.2440   10.3380   45.1520 O.3     435 HOH709      0.0000
    122 H1         35.2940   10.3380   45.1520 H       435 HOH709      0.0000
    123 H2         36.4891   11.2558   45.1520 H       435 HOH709      0.0000
    124 O          48.0200    6.9790   51.1260 O.3     436 HOH711      0.0000
    125 H1         47.0700    6.9790   51.1260 H       436 HOH711      0.0000
    126 H2         48.2651    7.8968   51.1260 H       436 HOH711      0.0000
    127 O          24.8900    3.2530   47.8860 O.3     437 HOH713      0.0000
    128 H1         23.9400    3.2530   47.8860 H       437 HOH713      0.0000
    129 H2         25.1351    4.1708   47.8860 H       437 HOH713      0.0000
    130 O          25.6870    8.9660   54.1020 O.3     438 HOH715      0.0000
    131 H1         24.7370    8.9660   54.1020 H       438 HOH715      0.0000
    132 H2         25.9321    9.8838   54.1020 H       438 HOH715      0.0000
    133 O          24.3550    0.2370   59.5260 O.3     439 HOH716      0.0000
    134 H1         23.4050    0.2370   59.5260 H       439 HOH716      0.0000
    135 H2         24.6001    1.1548   59.5260 H       439 HOH716      0.0000
    136 O          29.9000  -10.2440   57.7140 O.3     440 HOH723      0.0000
    137 H1         28.9500  -10.2440   57.7140 H       440 HOH723      0.0000
    138 H2         30.1451   -9.3262   57.7140 H       440 HOH723      0.0000
    139 O          39.7600   -8.0040   57.9980 O.3     441 HOH726      0.0000
    140 H1         38.8100   -8.0040   57.9980 H       441 HOH726      0.0000
    141 H2         40.0051   -7.0862   57.9980 H       441 HOH726      0.0000
    142 O          37.5100  -14.4540   50.5840 O.3     442 HOH727      0.0000
    143 H1         36.5600  -14.4540   50.5840 H       442 HOH727      0.0000
    144 H2         37.7551  -13.5362   50.5840 H       442 HOH727      0.0000
    145 O          41.6130  -11.7910   44.4920 O.3     443 HOH729      0.0000
    146 H1         40.6630  -11.7910   44.4920 H       443 HOH729      0.0000
    147 H2         41.8581  -10.8732   44.4920 H       443 HOH729      0.0000
    148 O          40.2160  -16.0180   47.1260 O.3     444 HOH730      0.0000
    149 H1         39.2660  -16.0180   47.1260 H       444 HOH730      0.0000
    150 H2         40.4611  -15.1002   47.1260 H       444 HOH730      0.0000
    151 O          33.3790   -4.2400   33.7780 O.3     445 HOH735      0.0000
    152 H1         32.4290   -4.2400   33.7780 H       445 HOH735      0.0000
    153 H2         33.6241   -3.3222   33.7780 H       445 HOH735      0.0000
    154 O          39.8970    4.9990   38.2720 O.3     446 HOH736      0.0000
    155 H1         38.9470    4.9990   38.2720 H       446 HOH736      0.0000
    156 H2         40.1421    5.9168   38.2720 H       446 HOH736      0.0000
    157 O          34.7080  -12.0350   47.0270 O.3     447 HOH737      0.0000
    158 H1         33.7580  -12.0350   47.0270 H       447 HOH737      0.0000
    159 H2         34.9531  -11.1172   47.0270 H       447 HOH737      0.0000
    160 O          15.7600   -3.4480   54.7910 O.3     448 HOH741      0.0000
    161 H1         14.8100   -3.4480   54.7910 H       448 HOH741      0.0000
    162 H2         16.0051   -2.5302   54.7910 H       448 HOH741      0.0000
    163 O          19.1080   -7.8330   55.6190 O.3     449 HOH742      0.0000
    164 H1         18.1580   -7.8330   55.6190 H       449 HOH742      0.0000
    165 H2         19.3531   -6.9152   55.6190 H       449 HOH742      0.0000
    166 O          28.7550   -4.5720   34.4560 O.3     450 HOH755      0.0000
    167 H1         27.8050   -4.5720   34.4560 H       450 HOH755      0.0000
    168 H2         29.0001   -3.6542   34.4560 H       450 HOH755      0.0000
    169 O          36.4900    0.9130   33.5290 O.3     451 HOH756      0.0000
    170 H1         35.5400    0.9130   33.5290 H       451 HOH756      0.0000
    171 H2         36.7351    1.8308   33.5290 H       451 HOH756      0.0000
    172 O          38.2330   -1.9230   41.8240 O.3     452 HOH758      0.0000
    173 H1         37.2830   -1.9230   41.8240 H       452 HOH758      0.0000
    174 H2         38.4781   -1.0052   41.8240 H       452 HOH758      0.0000
    175 O          20.8990  -12.3400   41.6060 O.3     453 HOH766      0.0000
    176 H1         19.9490  -12.3400   41.6060 H       453 HOH766      0.0000
    177 H2         21.1441  -11.4222   41.6060 H       453 HOH766      0.0000
    178 O          20.6930  -12.5040   49.7620 O.3     454 HOH767      0.0000
    179 H1         19.7430  -12.5040   49.7620 H       454 HOH767      0.0000
    180 H2         20.9381  -11.5862   49.7620 H       454 HOH767      0.0000
    181 O          21.4750  -17.6840   53.8950 O.3     455 HOH770      0.0000
    182 H1         20.5250  -17.6840   53.8950 H       455 HOH770      0.0000
    183 H2         21.7201  -16.7662   53.8950 H       455 HOH770      0.0000
    184 O          21.5670  -13.4140   52.2790 O.3     456 HOH774      0.0000
    185 H1         20.6170  -13.4140   52.2790 H       456 HOH774      0.0000
    186 H2         21.8121  -12.4962   52.2790 H       456 HOH774      0.0000
    187 O          39.4420  -16.2430   49.9870 O.3     457 HOH779      0.0000
    188 H1         38.4920  -16.2430   49.9870 H       457 HOH779      0.0000
    189 H2         39.6871  -15.3252   49.9870 H       457 HOH779      0.0000
    190 O          39.9300  -17.8290   44.2310 O.3     458 HOH781      0.0000
    191 H1         38.9800  -17.8290   44.2310 H       458 HOH781      0.0000
    192 H2         40.1751  -16.9112   44.2310 H       458 HOH781      0.0000
    193 O          26.8460  -20.9730   59.3340 O.3     459 HOH793      0.0000
    194 H1         25.8960  -20.9730   59.3340 H       459 HOH793      0.0000
    195 H2         27.0911  -20.0552   59.3340 H       459 HOH793      0.0000
    196 O          21.7600  -26.7140   62.8740 O.3     460 HOH798      0.0000
    197 H1         20.8100  -26.7140   62.8740 H       460 HOH798      0.0000
    198 H2         22.0051  -25.7962   62.8740 H       460 HOH798      0.0000
    199 O          28.5850  -27.1540   56.5910 O.3     461 HOH800      0.0000
    200 H1         27.6350  -27.1540   56.5910 H       461 HOH800      0.0000
    201 H2         28.8301  -26.2362   56.5910 H       461 HOH800      0.0000
    202 O          18.9000  -24.5010   50.9530 O.3     462 HOH816      0.0000
    203 H1         17.9500  -24.5010   50.9530 H       462 HOH816      0.0000
    204 H2         19.1451  -23.5832   50.9530 H       462 HOH816      0.0000
    205 O          26.2880  -28.6480   56.0920 O.3     463 HOH817      0.0000
    206 H1         25.3380  -28.6480   56.0920 H       463 HOH817      0.0000
    207 H2         26.5331  -27.7302   56.0920 H       463 HOH817      0.0000
    208 O          34.3830  -24.1500   62.6170 O.3     464 HOH825      0.0000
    209 H1         33.4330  -24.1500   62.6170 H       464 HOH825      0.0000
    210 H2         34.6281  -23.2322   62.6170 H       464 HOH825      0.0000
    211 O          30.3690  -32.4360   64.2890 O.3     465 HOH828      0.0000
    212 H1         29.4190  -32.4360   64.2890 H       465 HOH828      0.0000
    213 H2         30.6141  -31.5182   64.2890 H       465 HOH828      0.0000
    214 O          31.9450  -35.9680   59.3430 O.3     466 HOH830      0.0000
    215 H1         30.9950  -35.9680   59.3430 H       466 HOH830      0.0000
    216 H2         32.1901  -35.0502   59.3430 H       466 HOH830      0.0000
    217 O          32.3280  -17.9690   56.2990 O.3     467 HOH850      0.0000
    218 H1         31.3780  -17.9690   56.2990 H       467 HOH850      0.0000
    219 H2         32.5731  -17.0512   56.2990 H       467 HOH850      0.0000
    220 O          38.3270  -18.9050   48.5780 O.3     468 HOH852      0.0000
    221 H1         37.3770  -18.9050   48.5780 H       468 HOH852      0.0000
    222 H2         38.5721  -17.9872   48.5780 H       468 HOH852      0.0000
    223 O          44.3240  -22.9330   43.7840 O.3     469 HOH854      0.0000
    224 H1         43.3740  -22.9330   43.7840 H       469 HOH854      0.0000
    225 H2         44.5691  -22.0152   43.7840 H       469 HOH854      0.0000
    226 O          46.4850  -28.9490   41.9240 O.3     470 HOH855      0.0000
    227 H1         45.5350  -28.9490   41.9240 H       470 HOH855      0.0000
    228 H2         46.7301  -28.0312   41.9240 H       470 HOH855      0.0000
    229 O          32.4490  -30.2300   49.0630 O.3     471 HOH865      0.0000
    230 H1         31.4990  -30.2300   49.0630 H       471 HOH865      0.0000
    231 H2         32.6941  -29.3122   49.0630 H       471 HOH865      0.0000
    232 O          34.7260  -23.4560   56.7020 O.3     472 HOH866      0.0000
    233 H1         33.7760  -23.4560   56.7020 H       472 HOH866      0.0000
    234 H2         34.9711  -22.5382   56.7020 H       472 HOH866      0.0000
    235 O          35.6460  -22.8550   60.0700 O.3     473 HOH867      0.0000
    236 H1         34.6960  -22.8550   60.0700 H       473 HOH867      0.0000
    237 H2         35.8911  -21.9372   60.0700 H       473 HOH867      0.0000
    238 O          33.4310  -30.8180   46.3730 O.3     474 HOH884      0.0000
    239 H1         32.4810  -30.8180   46.3730 H       474 HOH884      0.0000
    240 H2         33.6761  -29.9002   46.3730 H       474 HOH884      0.0000
    241 O          28.1340  -30.0830   51.0040 O.3     475 HOH887      0.0000
    242 H1         27.1840  -30.0830   51.0040 H       475 HOH887      0.0000
    243 H2         28.3791  -29.1652   51.0040 H       475 HOH887      0.0000
    244 O          29.7880  -31.6570   49.9930 O.3     476 HOH891      0.0000
    245 H1         28.8380  -31.6570   49.9930 H       476 HOH891      0.0000
    246 H2         30.0331  -30.7392   49.9930 H       476 HOH891      0.0000
    247 O          52.2540  -31.6190   80.6210 O.3     477 HOH903      0.0000
    248 H1         51.3040  -31.6190   80.6210 H       477 HOH903      0.0000
    249 H2         52.4991  -30.7012   80.6210 H       477 HOH903      0.0000
    250 O          47.4130  -17.7460   73.7860 O.3     478 HOH905      0.0000
    251 H1         46.4630  -17.7460   73.7860 H       478 HOH905      0.0000
    252 H2         47.6581  -16.8282   73.7860 H       478 HOH905      0.0000
    253 O          37.1610  -20.8610   61.7550 O.3     479 HOH910      0.0000
    254 H1         36.2110  -20.8610   61.7550 H       479 HOH910      0.0000
    255 H2         37.4061  -19.9432   61.7550 H       479 HOH910      0.0000
    256 O          39.6390  -19.9100   46.6080 O.3     480 HOH914      0.0000
    257 H1         38.6890  -19.9100   46.6080 H       480 HOH914      0.0000
    258 H2         39.8841  -18.9922   46.6080 H       480 HOH914      0.0000
    259 O          54.6260  -22.4540   38.3210 O.3     481 HOH917      0.0000
    260 H1         53.6760  -22.4540   38.3210 H       481 HOH917      0.0000
    261 H2         54.8711  -21.5362   38.3210 H       481 HOH917      0.0000
    262 O          51.3920  -13.9660   68.7640 O.3     482 HOH930      0.0000
    263 H1         50.4420  -13.9660   68.7640 H       482 HOH930      0.0000
    264 H2         51.6371  -13.0482   68.7640 H       482 HOH930      0.0000
    265 O          43.9460  -18.3160   73.1150 O.3     483 HOH931      0.0000
    266 H1         42.9960  -18.3160   73.1150 H       483 HOH931      0.0000
    267 H2         44.1911  -17.3982   73.1150 H       483 HOH931      0.0000
    268 O          41.6330  -11.0650   75.9090 O.3     484 HOH934      0.0000
    269 H1         40.6830  -11.0650   75.9090 H       484 HOH934      0.0000
    270 H2         41.8781  -10.1472   75.9090 H       484 HOH934      0.0000
    271 O          36.8890  -10.7830   70.0560 O.3     485 HOH938      0.0000
    272 H1         35.9390  -10.7830   70.0560 H       485 HOH938      0.0000
    273 H2         37.1341   -9.8652   70.0560 H       485 HOH938      0.0000
    274 O          48.8210  -12.2790   63.1200 O.3     486 HOH943      0.0000
    275 H1         47.8710  -12.2790   63.1200 H       486 HOH943      0.0000
    276 H2         49.0661  -11.3612   63.1200 H       486 HOH943      0.0000
    277 O          52.7930  -30.0560   57.7650 O.3     487 HOH956      0.0000
    278 H1         51.8430  -30.0560   57.7650 H       487 HOH956      0.0000
    279 H2         53.0381  -29.1382   57.7650 H       487 HOH956      0.0000
    280 O          48.4820  -27.6260   68.1990 O.3     488 HOH957      0.0000
    281 H1         47.5320  -27.6260   68.1990 H       488 HOH957      0.0000
    282 H2         48.7271  -26.7082   68.1990 H       488 HOH957      0.0000
    283 O          53.1050  -23.5300   74.0970 O.3     489 HOH961      0.0000
    284 H1         52.1550  -23.5300   74.0970 H       489 HOH961      0.0000
    285 H2         53.3501  -22.6122   74.0970 H       489 HOH961      0.0000
    286 O          53.1540  -11.6320   76.3890 O.3     490 HOH963      0.0000
    287 H1         52.2040  -11.6320   76.3890 H       490 HOH963      0.0000
    288 H2         53.3991  -10.7142   76.3890 H       490 HOH963      0.0000
    289 O          58.3100   -9.8280   80.1130 O.3     491 HOH966      0.0000
    290 H1         57.3600   -9.8280   80.1130 H       491 HOH966      0.0000
    291 H2         58.5551   -8.9102   80.1130 H       491 HOH966      0.0000
    292 O          18.0690  -15.3960   67.6650 O.3     492 HOH967      0.0000
    293 H1         17.1190  -15.3960   67.6650 H       492 HOH967      0.0000
    294 H2         18.3141  -14.4782   67.6650 H       492 HOH967      0.0000
    295 O          51.4660   -7.3140   43.3910 O.3     493 HOH968      0.0000
    296 H1         50.5160   -7.3140   43.3910 H       493 HOH968      0.0000
    297 H2         51.7111   -6.3962   43.3910 H       493 HOH968      0.0000
    298 O          35.5250  -20.4930   72.1330 O.3     494 HOH969      0.0000
    299 H1         34.5750  -20.4930   72.1330 H       494 HOH969      0.0000
    300 H2         35.7701  -19.5752   72.1330 H       494 HOH969      0.0000
    301 O          35.2150    5.5410   69.4680 O.3     495 HOH970      0.0000
    302 H1         34.2650    5.5410   69.4680 H       495 HOH970      0.0000
    303 H2         35.4601    6.4588   69.4680 H       495 HOH970      0.0000
    304 O          28.0090  -27.1390   41.9310 O.3     496 HOH971      0.0000
    305 H1         27.0590  -27.1390   41.9310 H       496 HOH971      0.0000
    306 H2         28.2541  -26.2212   41.9310 H       496 HOH971      0.0000
    307 O          38.9770  -29.5780   83.2760 O.3     497 HOH972      0.0000
    308 H1         38.0270  -29.5780   83.2760 H       497 HOH972      0.0000
    309 H2         39.2221  -28.6602   83.2760 H       497 HOH972      0.0000
    310 O          38.5280  -29.1730   70.7400 O.3     498 HOH973      0.0000
    311 H1         37.5780  -29.1730   70.7400 H       498 HOH973      0.0000
    312 H2         38.7731  -28.2552   70.7400 H       498 HOH973      0.0000
    313 O          37.0570  -36.4880   48.7190 O.3     499 HOH974      0.0000
    314 H1         36.1070  -36.4880   48.7190 H       499 HOH974      0.0000
    315 H2         37.3021  -35.5702   48.7190 H       499 HOH974      0.0000
    316 O          28.8250   14.3480   42.1230 O.3     500 HOH975      0.0000
    317 H1         27.8750   14.3480   42.1230 H       500 HOH975      0.0000
    318 H2         29.0701   15.2658   42.1230 H       500 HOH975      0.0000
    319 O          16.3580   -4.5500   47.5760 O.3     501 HOH976      0.0000
    320 H1         15.4080   -4.5500   47.5760 H       501 HOH976      0.0000
    321 H2         16.6031   -3.6322   47.5760 H       501 HOH976      0.0000
@<TRIPOS>BOND
     1    1    2 1
     2    1    3 1
     3    4    5 1
     4    4    6 1
     5    7    8 1
     6    7    9 1
     7   10   11 1
     8   10   12 1
     9   13   14 1
    10   13   15 1
    11   16   17 1
    12   16   18 1
    13   19   20 1
    14   19   21 1
    15   22   23 1
    16   22   24 1
    17   25   26 1
    18   25   27 1
    19   28   29 1
    20   28   30 1
    21   31   32 1
    22   31   33 1
    23   34   35 1
    24   34   36 1
    25   37   38 1
    26   37   39 1
    27   40   41 1
    28   40   42 1
    29   43   44 1
    30   43   45 1
    31   46   47 1
    32   46   48 1
    33   49   50 1
    34   49   51 1
    35   52   53 1
    36   52   54 1
    37   55   56 1
    38   55   57 1
    39   58   59 1
    40   58   60 1
    41   61   62 1
    42   61   63 1
    43   64   65 1
    44   64   66 1
    45   67   68 1
    46   67   69 1
    47   70   71 1
    48   70   72 1
    49   73   74 1
    50   73   75 1
    51   76   77 1
    52   76   78 1
    53   79   80 1
    54   79   81 1
    55   82   83 1
    56   82   84 1
    57   85   86 1
    58   85   87 1
    59   88   89 1
    60   88   90 1
    61   91   92 1
    62   91   93 1
    63   94   95 1
    64   94   96 1
    65   97   98 1
    66   97   99 1
    67  100  101 1
    68  100  102 1
    69  103  104 1
    70  103  105 1
    71  106  107 1
    72  106  108 1
    73  109  110 1
    74  109  111 1
    75  112  113 1
    76  112  114 1
    77  115  116 1
    78  115  117 1
    79  118  119 1
    80  118  120 1
    81  121  122 1
    82  121  123 1
    83  124  125 1
    84  124  126 1
    85  127  128 1
    86  127  129 1
    87  130  131 1
    88  130  132 1
    89  133  134 1
    90  133  135 1
    91  136  137 1
    92  136  138 1
    93  139  140 1
    94  139  141 1
    95  142  143 1
    96  142  144 1
    97  145  146 1
    98  145  147 1
    99  148  149 1
   100  148  150 1
   101  151  152 1
   102  151  153 1
   103  154  155 1
   104  154  156 1
   105  157  158 1
   106  157  159 1
   107  160  161 1
   108  160  162 1
   109  163  164 1
   110  163  165 1
   111  166  167 1
   112  166  168 1
   113  169  170 1
   114  169  171 1
   115  172  173 1
   116  172  174 1
   117  175  176 1
   118  175  177 1
   119  178  179 1
   120  178  180 1
   121  181  182 1
   122  181  183 1
   123  184  185 1
   124  184  186 1
   125  187  188 1
   126  187  189 1
   127  190  191 1
   128  190  192 1
   129  193  194 1
   130  193  195 1
   131  196  197 1
   132  196  198 1
   133  199  200 1
   134  199  201 1
   135  202  203 1
   136  202  204 1
   137  205  206 1
   138  205  207 1
   139  208  209 1
   140  208  210 1
   141  211  212 1
   142  211  213 1
   143  214  215 1
   144  214  216 1
   145  217  218 1
   146  217  219 1
   147  220  221 1
   148  220  222 1
   149  223  224 1
   150  223  225 1
   151  226  227 1
   152  226  228 1
   153  229  230 1
   154  229  231 1
   155  232  233 1
   156  232  234 1
   157  235  236 1
   158  235  237 1
   159  238  239 1
   160  238  240 1
   161  241  242 1
   162  241  243 1
   163  244  245 1
   164  244  246 1
   165  247  248 1
   166  247  249 1
   167  250  251 1
   168  250  252 1
   169  253  254 1
   170  253  255 1
   171  256  257 1
   172  256  258 1
   173  259  260 1
   174  259  261 1
   175  262  263 1
   176  262  264 1
   177  265  266 1
   178  265  267 1
   179  268  269 1
   180  268  270 1
   181  271  272 1
   182  271  273 1
   183  274  275 1
   184  274  276 1
   185  277  278 1
   186  277  279 1
   187  280  281 1
   188  280  282 1
   189  283  284 1
   190  283  285 1
   191  286  287 1
   192  286  288 1
   193  289  290 1
   194  289  291 1
   195  292  293 1
   196  292  294 1
   197  295  296 1
   198  295  297 1
   199  298  299 1
   200  298  300 1
   201  301  302 1
   202  301  303 1
   203  304  305 1
   204  304  306 1
   205  307  308 1
   206  307  309 1
   207  310  311 1
   208  310  312 1
   209  313  314 1
   210  313  315 1
   211  316  317 1
   212  316  318 1
   213  319  320 1
   214  319  321 1
@<TRIPOS>SUBSTRUCTURE
395 HOH502 1
396 HOH588 4
397 HOH593 7
398 HOH594 10
399 HOH595 13
400 HOH601 16
401 HOH602 19
402 HOH603 22
403 HOH604 25
404 HOH605 28
405 HOH609 31
406 HOH610 34
407 HOH611 37
408 HOH613 40
409 HOH618 43
410 HOH620 46
411 HOH621 49
412 HOH622 52
413 HOH623 55
414 HOH629 58
415 HOH637 61
416 HOH638 64
417 HOH640 67
418 HOH641 70
419 HOH642 73
420 HOH643 76
421 HOH646 79
422 HOH649 82
423 HOH650 85
424 HOH652 88
425 HOH667 91
426 HOH668 94
427 HOH673 97
428 HOH682 100
429 HOH684 103
430 HOH694 106
431 HOH697 109
432 HOH700 112
433 HOH706 115
434 HOH707 118
435 HOH709 121
436 HOH711 124
437 HOH713 127
438 HOH715 130
439 HOH716 133
440 HOH723 136
441 HOH726 139
442 HOH727 142
443 HOH729 145
444 HOH730 148
445 HOH735 151
446 HOH736 154
447 HOH737 157
448 HOH741 160
449 HOH742 163
450 HOH755 166
451 HOH756 169
452 HOH758 172
453 HOH766 175
454 HOH767 178
455 HOH770 181
456 HOH774 184
457 HOH779 187
458 HOH781 190
459 HOH793 193
460 HOH798 196
461 HOH800 199
462 HOH816 202
463 HOH817 205
464 HOH825 208
465 HOH828 211
466 HOH830 214
467 HOH850 217
468 HOH852 220
469 HOH854 223
470 HOH855 226
471 HOH865 229
472 HOH866 232
473 HOH867 235
474 HOH884 238
475 HOH887 241
476 HOH891 244
477 HOH903 247
478 HOH905 250
479 HOH910 253
480 HOH914 256
481 HOH917 259
482 HOH930 262
483 HOH931 265
484 HOH934 268
485 HOH938 271
486 HOH943 274
487 HOH956 277
488 HOH957 280
489 HOH961 283
490 HOH963 286
491 HOH966 289
492 HOH967 292
493 HOH968 295
494 HOH969 298
495 HOH970 301
496 HOH971 304
497 HOH972 307
498 HOH973 310
499 HOH974 313
500 HOH975 316
501 HOH976 319
@<TRIPOS>COMMENT


