@<TRIPOS>MOLECULE
1b9t_ligand_1
41 42 1
SMALL
GASTEIGER


@<TRIPOS>ATOM
      1 C1         33.8350   -9.7190   64.6050 C.ar    394 RAI468      0.0000
      2 C2         32.5300   -9.4640   64.0870 C.ar    394 RAI468      0.0000
      3 C6         34.0630  -10.8250   65.4590 C.ar    394 RAI468      0.0000
      4 H1         34.6565   -9.0621   64.3431 H       394 RAI468      0.0000
      5 N15        32.2740   -8.3760   63.2370 N.am    394 RAI468      0.0000
      6 C3         31.4600  -10.3440   64.4570 C.ar    394 RAI468      0.0000
      7 C5         32.9860  -11.7000   65.8150 C.ar    394 RAI468      0.0000
      8 H6         35.0585  -11.0108   65.8458 H       394 RAI468      0.0000
      9 C16        32.4450   -8.3520   61.7310 C.3     394 RAI468      0.0000
     10 C19        31.7990   -7.1960   63.7300 C.2     394 RAI468      0.0000
     11 C4         31.7010  -11.4430   65.3090 C.ar    394 RAI468      0.0000
     12 N12        30.1790  -10.1610   64.0130 N.pl3   394 RAI468      0.5000
     13 C10        33.2090  -12.8620   66.6940 C.2     394 RAI468      0.0000
     14 C17        32.2020   -6.8470   61.4010 C.3     394 RAI468      0.0000
     15 C24        31.3670   -9.2380   61.0210 C.3     394 RAI468      0.0000
     16 C28        33.8760   -8.8440   61.2880 C.3     394 RAI468      0.0000
     17 C18        31.5800   -6.1860   62.6270 C.3     394 RAI468      0.0000
     18 O34        31.5580   -6.9480   64.9060 O.2     394 RAI468      0.0000
     19 H4         30.8812  -12.0995   65.5773 H       394 RAI468      0.0000
     20 C13        29.2990  -11.0450   63.5120 C.cat   394 RAI468      0.0000
     21 H12        29.8342   -9.1922   64.0720 H       394 RAI468      0.0000
     22 O32        34.2810  -13.1100   67.1400 O.co2   394 RAI468     -0.5000
     23 O11        32.1250  -13.6200   66.9520 O.co2   394 RAI468     -0.5000
     24 H171       31.5153   -6.7508   60.5471 H       394 RAI468      0.0000
     25 H172       33.1546   -6.3510   61.1632 H       394 RAI468      0.0000
     26 O25        31.6700   -9.4450   59.6410 O.3     394 RAI468      0.0000
     27 H241       30.3784   -8.7573   61.0616 H       394 RAI468      0.0000
     28 H242       31.3105  -10.2326   61.4875 H       394 RAI468      0.0000
     29 O29        34.4430   -7.9650   60.3610 O.3     394 RAI468      0.0000
     30 H281       33.8314   -9.8283   60.7989 H       394 RAI468      0.0000
     31 H282       34.5695   -8.8894   62.1406 H       394 RAI468      0.0000
     32 H181       30.5061   -6.0027   62.4748 H       394 RAI468      0.0000
     33 H182       32.0841   -5.2371   62.8626 H       394 RAI468      0.0000
     34 N14        29.7330  -12.1730   62.9090 N.pl3   394 RAI468      0.5000
     35 N33        27.9970  -10.7800   63.6210 N.pl3   394 RAI468      0.5000
     36 H25        32.2398   -8.7227   59.4042 H       394 RAI468      0.0000
     37 H29        33.7711   -7.3133   60.1985 H       394 RAI468      0.0000
     38 H141       29.0540  -12.8452   62.5242 H       394 RAI468      0.0000
     39 H142       30.7429  -12.3610   62.8340 H       394 RAI468      0.0000
     40 H331       27.3035  -11.4406   63.2421 H       394 RAI468      0.0000
     41 H332       27.6846   -9.9147   64.0841 H       394 RAI468      0.0000
@<TRIPOS>BOND
     1    1    2 ar
     2    1    3 ar
     3    2    5 1
     4    2    6 ar
     5    6   11 ar
     6    6   12 1
     7   11    7 ar
     8    7   13 1
     9    7    3 ar
    10   13   22 ar
    11   13   23 ar
    12   12   20 ar
    13   20   34 ar
    14   20   35 ar
    15    5    9 1
    16    5   10 am
    17    9   14 1
    18    9   15 1
    19    9   16 1
    20   14   17 1
    21   17   10 1
    22   10   18 2
    23   15   26 1
    24   16   29 1
    25    1    4 1
    26   11   19 1
    27    3    8 1
    28   14   24 1
    29   14   25 1
    30   17   32 1
    31   17   33 1
    32   15   27 1
    33   15   28 1
    34   16   30 1
    35   16   31 1
    36   12   21 1
    37   34   38 1
    38   34   39 1
    39   35   40 1
    40   35   41 1
    41   26   36 1
    42   29   37 1
@<TRIPOS>SUBSTRUCTURE
394 RAI468 1
@<TRIPOS>COMMENT


