@<TRIPOS>MOLECULE
1b9t_ligand_0
29 29 1
SMALL
GASTEIGER


@<TRIPOS>ATOM
      1 C1         41.0870  -18.2470   32.8570 C.3     391 NAG467      0.0000
      2 O5         41.1730  -17.4970   31.6230 O.3     391 NAG467      0.0000
      3 C2         41.4850  -19.6990   32.6700 C.3     391 NAG467      0.0000
      4 H11        40.0485  -18.1877   33.2146 H       391 NAG467      0.0000
      5 H12        41.7546  -17.7682   33.5885 H       391 NAG467      0.0000
      6 C5         42.5200  -17.3370   31.1290 C.3     391 NAG467      0.0000
      7 C3         42.9790  -19.6490   32.2810 C.3     391 NAG467      0.0000
      8 N2         41.2000  -20.3060   33.9560 N.am    391 NAG467      0.0000
      9 H2         40.8968  -20.1616   31.8638 H       391 NAG467      0.0000
     10 C4         43.1740  -18.7690   30.9420 C.3     391 NAG467      0.0000
     11 C6         42.4260  -16.4190   29.9140 C.3     391 NAG467      0.0000
     12 H5         43.1129  -16.8138   31.8937 H       391 NAG467      0.0000
     13 O3         43.4570  -20.9770   32.1090 O.3     391 NAG467      0.0000
     14 H3         43.5324  -19.1503   33.0903 H       391 NAG467      0.0000
     15 C7         41.0940  -21.6050   34.2150 C.2     391 NAG467      0.0000
     16 H2         41.0699  -19.6828   34.7272 H       391 NAG467      0.0000
     17 O4         44.5500  -18.6160   30.6150 O.3     391 NAG467      0.0000
     18 H4         42.6445  -19.2812   30.1251 H       391 NAG467      0.0000
     19 O6         41.6390  -15.2920   30.2470 O.3     391 NAG467      0.0000
     20 H61        41.9460  -16.9315   29.0672 H       391 NAG467      0.0000
     21 H62        43.4211  -16.0619   29.6101 H       391 NAG467      0.0000
     22 H3         44.4030  -20.8951   32.0794 H       391 NAG467      0.0000
     23 C8         40.7900  -21.9510   35.6570 C.3     391 NAG467      0.0000
     24 O7         41.2290  -22.4750   33.3590 O.2     391 NAG467      0.0000
     25 H4         44.6856  -17.6774   30.5587 H       391 NAG467      0.0000
     26 H6         40.7501  -15.6222   30.3047 H       391 NAG467      0.0000
     27 H81        41.4955  -22.7193   36.0063 H       391 NAG467      0.0000
     28 H82        40.8915  -21.0498   36.2796 H       391 NAG467      0.0000
     29 H83        39.7621  -22.3353   35.7330 H       391 NAG467      0.0000
@<TRIPOS>BOND
     1    1    2 1
     2    1    3 1
     3    3    7 1
     4    3    8 1
     5    7   13 1
     6    7   10 1
     7   10   17 1
     8   10    6 1
     9    6    2 1
    10    6   11 1
    11   11   19 1
    12   15   23 1
    13   15    8 am
    14   15   24 2
    15    1    4 1
    16    1    5 1
    17    3    9 1
    18    7   14 1
    19   10   18 1
    20    6   12 1
    21   11   20 1
    22   11   21 1
    23   23   27 1
    24   23   28 1
    25   23   29 1
    26    8   16 1
    27   13   22 1
    28   17   25 1
    29   19   26 1
@<TRIPOS>SUBSTRUCTURE
391 NAG467 1
@<TRIPOS>COMMENT


