@<TRIPOS>MOLECULE
1b9s_ligand_1
40 40 1
SMALL
GASTEIGER


@<TRIPOS>ATOM
      1 C1         33.5870   -9.7130   64.2290 C.ar    394 FDI468      0.0000
      2 C6         33.8260  -10.8520   65.0500 C.ar    394 FDI468      0.0000
      3 C2         32.2850   -9.4600   63.7000 C.ar    394 FDI468      0.0000
      4 H1         34.4002   -9.0325   64.0038 H       394 FDI468      0.0000
      5 C5         32.7670  -11.7590   65.3550 C.ar    394 FDI468      0.0000
      6 H6         34.8190  -11.0313   65.4460 H       394 FDI468      0.0000
      7 C3         31.2190  -10.3660   64.0090 C.ar    394 FDI468      0.0000
      8 N32        32.0850   -8.3570   62.9020 N.am    394 FDI468      0.0000
      9 C4         31.4760  -11.5020   64.8300 C.ar    394 FDI468      0.0000
     10 C10        32.9920  -12.9650   66.2010 C.2     394 FDI468      0.0000
     11 N13        29.9440  -10.1580   63.5200 N.am    394 FDI468      0.0000
     12 C33        31.5340   -7.1880   63.3370 C.2     394 FDI468      0.0000
     13 H32        32.3611   -8.4164   61.9427 H       394 FDI468      0.0000
     14 H4         30.6657  -12.1850   65.0581 H       394 FDI468      0.0000
     15 O12        34.0660  -13.2130   66.6530 O.co2   394 FDI468     -0.5000
     16 O11        31.9170  -13.7590   66.4190 O.co2   394 FDI468     -0.5000
     17 C14        28.8040  -10.6760   64.0940 C.2     394 FDI468      0.0000
     18 H13        29.8423   -9.5968   62.6986 H       394 FDI468      0.0000
     19 C34        31.4230   -6.1220   62.2430 C.3     394 FDI468      0.0000
     20 O38        31.1480   -6.9660   64.4800 O.2     394 FDI468      0.0000
     21 O16        28.4160  -11.8350   63.9350 O.2     394 FDI468      0.0000
     22 C15        27.9830   -9.6620   64.9570 C.3     394 FDI468      0.0000
     23 H341       30.3649   -5.9742   61.9811 H       394 FDI468      0.0000
     24 H342       31.8457   -5.1750   62.6096 H       394 FDI468      0.0000
     25 H343       31.9786   -6.4512   61.3525 H       394 FDI468      0.0000
     26 C17        27.6710   -8.3960   64.1190 C.3     394 FDI468      0.0000
     27 C24        28.7640   -9.3610   66.2760 C.3     394 FDI468      0.0000
     28 H15        27.0292  -10.1389   65.2269 H       394 FDI468      0.0000
     29 C18        26.2190   -8.2830   63.6280 C.3     394 FDI468      0.0000
     30 H171       28.3269   -8.3969   63.2359 H       394 FDI468      0.0000
     31 H172       27.8884   -7.5119   64.7363 H       394 FDI468      0.0000
     32 C26        28.7360  -10.4960   67.3210 C.3     394 FDI468      0.0000
     33 H241       28.3273   -8.4647   66.7408 H       394 FDI468      0.0000
     34 H242       29.8157   -9.1656   66.0195 H       394 FDI468      0.0000
     35 H181       25.7921   -9.2900   63.5109 H       394 FDI468      0.0000
     36 H182       25.6268   -7.7168   64.3619 H       394 FDI468      0.0000
     37 H183       26.1989   -7.7613   62.6598 H       394 FDI468      0.0000
     38 H261       29.7661  -10.7913   67.5693 H       394 FDI468      0.0000
     39 H262       28.2260  -10.1449   68.2301 H       394 FDI468      0.0000
     40 H263       28.1960  -11.3610   66.9085 H       394 FDI468      0.0000
@<TRIPOS>BOND
     1    1    2 ar
     2    1    3 ar
     3    3    7 ar
     4    3    8 1
     5    7   11 1
     6    7    9 ar
     7    9    5 ar
     8    5    2 ar
     9    5   10 1
    10   10   15 ar
    11   10   16 ar
    12   11   17 am
    13   17   21 2
    14   17   22 1
    15   22   26 1
    16   22   27 1
    17   26   29 1
    18   27   32 1
    19    8   12 am
    20   12   19 1
    21   12   20 2
    22    1    4 1
    23    9   14 1
    24    2    6 1
    25   22   28 1
    26   26   30 1
    27   26   31 1
    28   29   35 1
    29   29   36 1
    30   29   37 1
    31   27   33 1
    32   27   34 1
    33   32   38 1
    34   32   39 1
    35   32   40 1
    36   19   23 1
    37   19   24 1
    38   19   25 1
    39   11   18 1
    40    8   13 1
@<TRIPOS>SUBSTRUCTURE
394 FDI468 1
@<TRIPOS>COMMENT


