@<TRIPOS>MOLECULE
1b9s_ligand_0
29 29 1
SMALL
GASTEIGER


@<TRIPOS>ATOM
      1 C1         42.3260  -17.9630   33.6360 C.3     391 NAG467      0.0000
      2 O5         42.0650  -17.1140   32.4940 O.3     391 NAG467      0.0000
      3 C2         42.0230  -19.4000   33.1620 C.3     391 NAG467      0.0000
      4 H11        41.6705  -17.6638   34.4672 H       391 NAG467      0.0000
      5 H12        43.3773  -17.8495   33.9390 H       391 NAG467      0.0000
      6 C5         42.9550  -17.2280   31.3600 C.3     391 NAG467      0.0000
      7 N2         41.7830  -20.3130   34.2740 N.am    391 NAG467      0.0000
      8 C3         43.2340  -19.7240   32.2610 C.3     391 NAG467      0.0000
      9 H2         41.1263  -19.3655   32.5258 H       391 NAG467      0.0000
     10 C4         43.3540  -18.7140   31.0350 C.3     391 NAG467      0.0000
     11 C6         42.1560  -16.7220   30.1660 C.3     391 NAG467      0.0000
     12 H5         43.8627  -16.6221   31.4975 H       391 NAG467      0.0000
     13 C7         41.0970  -21.4410   34.1310 C.2     391 NAG467      0.0000
     14 H2         42.1479  -20.0813   35.1758 H       391 NAG467      0.0000
     15 O3         43.0980  -21.0500   31.7510 O.3     391 NAG467      0.0000
     16 H3         44.1514  -19.6403   32.8621 H       391 NAG467      0.0000
     17 O4         44.7130  -18.6630   30.5900 O.3     391 NAG467      0.0000
     18 H4         42.7026  -19.0785   30.2270 H       391 NAG467      0.0000
     19 O6         41.5660  -15.4840   30.4880 O.3     391 NAG467      0.0000
     20 H61        41.3494  -17.4229   29.9050 H       391 NAG467      0.0000
     21 H62        42.8061  -16.5692   29.2919 H       391 NAG467      0.0000
     22 C8         40.9290  -22.2800   35.3840 C.3     391 NAG467      0.0000
     23 O7         40.6260  -21.8030   33.0550 O.2     391 NAG467      0.0000
     24 H3         43.9877  -21.3713   31.6634 H       391 NAG467      0.0000
     25 H4         44.9113  -17.7371   30.5138 H       391 NAG467      0.0000
     26 H6         40.6348  -15.6635   30.5440 H       391 NAG467      0.0000
     27 H81        41.9053  -22.6864   35.6868 H       391 NAG467      0.0000
     28 H82        40.5256  -21.6537   36.1933 H       391 NAG467      0.0000
     29 H83        40.2343  -23.1082   35.1803 H       391 NAG467      0.0000
@<TRIPOS>BOND
     1    1    2 1
     2    1    3 1
     3    3    7 1
     4    3    8 1
     5    8   10 1
     6    8   15 1
     7   10    6 1
     8   10   17 1
     9    6   11 1
    10    6    2 1
    11   11   19 1
    12   13   22 1
    13   13    7 am
    14   13   23 2
    15    1    4 1
    16    1    5 1
    17    3    9 1
    18    8   16 1
    19   10   18 1
    20    6   12 1
    21   11   20 1
    22   11   21 1
    23   22   27 1
    24   22   28 1
    25   22   29 1
    26    7   14 1
    27   15   24 1
    28   17   25 1
    29   19   26 1
@<TRIPOS>SUBSTRUCTURE
391 NAG467 1
@<TRIPOS>COMMENT


