MODEL 1
REMARK VINA RESULT:      -6.9      0.000      0.000
REMARK  9 active torsions:
REMARK  status: ('A' for Active; 'I' for Inactive)
REMARK    1  A    between atoms: C_2  and  C_3 
REMARK    2  A    between atoms: C_3  and  C_4 
REMARK    3  A    between atoms: C_3  and  O_12 
REMARK    4  A    between atoms: C_4  and  C_5 
REMARK    5  A    between atoms: C_5  and  C_6 
REMARK    6  A    between atoms: C_13  and  O_12 
REMARK    7  A    between atoms: C_15  and  C_16 
REMARK    8  A    between atoms: C_20  and  N_21 
REMARK    9  A    between atoms: C_22  and  N_23 
REMARK       I    between atoms: N_23  and  C_24 
ROOT
ATOM      1  C   LIG d   1      29.990 -10.089  65.411  0.00  0.00     0.170 C 
ATOM      2  C   LIG d   1      31.321 -10.777  65.526  0.00  0.00     0.021 C 
ATOM      3  C   LIG d   1      31.444 -12.082  65.902  0.00  0.00     0.019 C 
ATOM      4  C   LIG d   1      30.203 -12.889  66.160  0.00  0.00     0.080 C 
ATOM      5  C   LIG d   1      29.125 -12.089  66.916  0.00  0.00     0.213 C 
ATOM      6  C   LIG d   1      29.047 -10.556  66.572  0.00  0.00     0.147 C 
ENDROOT
BRANCH   1   7
ATOM      7  O   LIG d   1      29.561 -10.342  64.064  0.00  0.00    -0.375 OA
BRANCH   7   8
ATOM      8  C   LIG d   1      28.791  -9.368  63.345  0.00  0.00     0.122 C 
BRANCH   8   9
ATOM      9  C   LIG d   1      27.272  -9.400  63.626  0.00  0.00     0.027 C 
ATOM     10  C   LIG d   1      26.620  -8.020  63.674  0.00  0.00     0.007 C 
ENDBRANCH   8   9
BRANCH   8  11
ATOM     11  C   LIG d   1      29.341  -7.957  63.704  0.00  0.00     0.036 C 
BRANCH  11  12
ATOM     12  C   LIG d   1      30.176  -7.318  62.585  0.00  0.00     0.041 C 
BRANCH  12  13
ATOM     13  C   LIG d   1      31.629  -7.758  62.596  0.00  0.00    -0.058 A 
ATOM     14  C   LIG d   1      32.615  -6.999  63.245  0.00  0.00     0.007 A 
ATOM     15  C   LIG d   1      33.941  -7.442  63.290  0.00  0.00     0.001 A 
ATOM     16  C   LIG d   1      34.306  -8.635  62.672  0.00  0.00     0.000 A 
ATOM     17  C   LIG d   1      33.348  -9.376  61.986  0.00  0.00     0.001 A 
ATOM     18  C   LIG d   1      32.019  -8.940  61.948  0.00  0.00     0.007 A 
ENDBRANCH  12  13
ENDBRANCH  11  12
ENDBRANCH   8  11
ENDBRANCH   7   8
ENDBRANCH   1   7
BRANCH   6  19
ATOM     19  N   LIG d   1      29.330  -9.808  67.830  0.00  0.00    -0.352 N 
ATOM     20  C   LIG d   1      29.023  -8.483  68.019  0.00  0.00     0.214 C 
ATOM     21  C   LIG d   1      29.339  -7.958  69.400  0.00  0.00     0.117 C 
ATOM     22  O   LIG d   1      28.502  -7.786  67.156  0.00  0.00    -0.274 OA
ATOM     23  H   LIG d   1      29.762 -10.294  68.569  0.00  0.00     0.163 HD
ENDBRANCH   6  19
BRANCH   3  24
ATOM     24  C   LIG d   1      32.755 -12.760  66.047  0.00  0.00     0.205 C 
ATOM     25  O   LIG d   1      32.612 -14.117  66.083  0.00  0.00    -0.644 OA
ATOM     26  O   LIG d   1      33.843 -12.235  66.098  0.00  0.00    -0.644 OA
ENDBRANCH   3  24
BRANCH   5  27
ATOM     27  N   LIG d   1      27.820 -12.769  66.818  0.00  0.00    -0.073 N 
ATOM     28  H   LIG d   1      27.212 -12.451  67.573  0.00  0.00     0.274 HD
ATOM     29  H   LIG d   1      27.955 -13.777  66.892  0.00  0.00     0.274 HD
ATOM     30  H   LIG d   1      27.388 -12.549  65.920  0.00  0.00     0.274 HD
ENDBRANCH   5  27
TORSDOF 9
ENDMDL
MODEL 2
REMARK VINA RESULT:      -6.8      2.155      3.020
REMARK  9 active torsions:
REMARK  status: ('A' for Active; 'I' for Inactive)
REMARK    1  A    between atoms: C_2  and  C_3 
REMARK    2  A    between atoms: C_3  and  C_4 
REMARK    3  A    between atoms: C_3  and  O_12 
REMARK    4  A    between atoms: C_4  and  C_5 
REMARK    5  A    between atoms: C_5  and  C_6 
REMARK    6  A    between atoms: C_13  and  O_12 
REMARK    7  A    between atoms: C_15  and  C_16 
REMARK    8  A    between atoms: C_20  and  N_21 
REMARK    9  A    between atoms: C_22  and  N_23 
REMARK       I    between atoms: N_23  and  C_24 
ROOT
ATOM      1  C   LIG d   1      28.445 -10.589  66.723  0.00  0.00     0.170 C 
ATOM      2  C   LIG d   1      29.904 -10.880  66.501  0.00  0.00     0.021 C 
ATOM      3  C   LIG d   1      30.384 -11.370  65.323  0.00  0.00     0.019 C 
ATOM      4  C   LIG d   1      29.436 -11.580  64.177  0.00  0.00     0.080 C 
ATOM      5  C   LIG d   1      28.085 -12.168  64.628  0.00  0.00     0.213 C 
ATOM      6  C   LIG d   1      27.572 -11.693  66.038  0.00  0.00     0.147 C 
ENDROOT
BRANCH   1   7
ATOM      7  O   LIG d   1      28.270  -9.234  66.281  0.00  0.00    -0.375 OA
BRANCH   7   8
ATOM      8  C   LIG d   1      27.317  -8.914  65.258  0.00  0.00     0.122 C 
BRANCH   8   9
ATOM      9  C   LIG d   1      26.170  -7.979  65.702  0.00  0.00     0.027 C 
ATOM     10  C   LIG d   1      25.996  -7.884  67.216  0.00  0.00     0.007 C 
ENDBRANCH   8   9
BRANCH   8  11
ATOM     11  C   LIG d   1      28.082  -8.248  64.077  0.00  0.00     0.036 C 
BRANCH  11  12
ATOM     12  C   LIG d   1      29.516  -7.827  64.430  0.00  0.00     0.041 C 
BRANCH  12  13
ATOM     13  C   LIG d   1      30.394  -7.612  63.211  0.00  0.00    -0.058 A 
ATOM     14  C   LIG d   1      30.784  -6.324  62.813  0.00  0.00     0.007 A 
ATOM     15  C   LIG d   1      31.635  -6.142  61.717  0.00  0.00     0.001 A 
ATOM     16  C   LIG d   1      32.092  -7.241  60.993  0.00  0.00     0.000 A 
ATOM     17  C   LIG d   1      31.678  -8.521  61.348  0.00  0.00     0.001 A 
ATOM     18  C   LIG d   1      30.835  -8.705  62.449  0.00  0.00     0.007 A 
ENDBRANCH  12  13
ENDBRANCH  11  12
ENDBRANCH   8  11
ENDBRANCH   7   8
ENDBRANCH   1   7
BRANCH   6  19
ATOM     19  N   LIG d   1      27.466 -12.907  66.897  0.00  0.00    -0.352 N 
ATOM     20  C   LIG d   1      26.548 -13.050  67.909  0.00  0.00     0.214 C 
ATOM     21  C   LIG d   1      26.581 -14.395  68.598  0.00  0.00     0.117 C 
ATOM     22  O   LIG d   1      25.741 -12.179  68.210  0.00  0.00    -0.274 OA
ATOM     23  H   LIG d   1      28.090 -13.649  66.729  0.00  0.00     0.163 HD
ENDBRANCH   6  19
BRANCH   3  24
ATOM     24  C   LIG d   1      31.817 -11.688  65.107  0.00  0.00     0.205 C 
ATOM     25  O   LIG d   1      32.140 -12.908  65.627  0.00  0.00    -0.644 OA
ATOM     26  O   LIG d   1      32.632 -11.010  64.525  0.00  0.00    -0.644 OA
ENDBRANCH   3  24
BRANCH   5  27
ATOM     27  N   LIG d   1      27.077 -12.008  63.564  0.00  0.00    -0.073 N 
ATOM     28  H   LIG d   1      26.390 -12.760  63.630  0.00  0.00     0.274 HD
ATOM     29  H   LIG d   1      27.534 -12.045  62.653  0.00  0.00     0.274 HD
ATOM     30  H   LIG d   1      26.607 -11.109  63.672  0.00  0.00     0.274 HD
ENDBRANCH   5  27
TORSDOF 9
ENDMDL
MODEL 3
REMARK VINA RESULT:      -6.6      2.063      4.787
REMARK  9 active torsions:
REMARK  status: ('A' for Active; 'I' for Inactive)
REMARK    1  A    between atoms: C_2  and  C_3 
REMARK    2  A    between atoms: C_3  and  C_4 
REMARK    3  A    between atoms: C_3  and  O_12 
REMARK    4  A    between atoms: C_4  and  C_5 
REMARK    5  A    between atoms: C_5  and  C_6 
REMARK    6  A    between atoms: C_13  and  O_12 
REMARK    7  A    between atoms: C_15  and  C_16 
REMARK    8  A    between atoms: C_20  and  N_21 
REMARK    9  A    between atoms: C_22  and  N_23 
REMARK       I    between atoms: N_23  and  C_24 
ROOT
ATOM      1  C   LIG d   1      28.810 -12.409  65.463  0.00  0.00     0.170 C 
ATOM      2  C   LIG d   1      27.938 -11.756  64.427  0.00  0.00     0.021 C 
ATOM      3  C   LIG d   1      27.663 -10.420  64.434  0.00  0.00     0.019 C 
ATOM      4  C   LIG d   1      28.294  -9.549  65.483  0.00  0.00     0.080 C 
ATOM      5  C   LIG d   1      28.322 -10.219  66.870  0.00  0.00     0.213 C 
ATOM      6  C   LIG d   1      28.529 -11.779  66.869  0.00  0.00     0.147 C 
ENDROOT
BRANCH   1   7
ATOM      7  O   LIG d   1      30.143 -12.302  64.941  0.00  0.00    -0.375 OA
BRANCH   7   8
ATOM      8  C   LIG d   1      31.200 -11.747  65.738  0.00  0.00     0.122 C 
BRANCH   8   9
ATOM      9  C   LIG d   1      32.154 -12.783  66.372  0.00  0.00     0.027 C 
ATOM     10  C   LIG d   1      31.826 -13.123  67.824  0.00  0.00     0.007 C 
ENDBRANCH   8   9
BRANCH   8  11
ATOM     11  C   LIG d   1      32.027 -10.783  64.837  0.00  0.00     0.036 C 
BRANCH  11  12
ATOM     12  C   LIG d   1      31.267 -10.292  63.598  0.00  0.00     0.041 C 
BRANCH  12  13
ATOM     13  C   LIG d   1      31.464  -8.813  63.321  0.00  0.00    -0.058 A 
ATOM     14  C   LIG d   1      32.731  -8.218  63.410  0.00  0.00     0.007 A 
ATOM     15  C   LIG d   1      32.908  -6.864  63.103  0.00  0.00     0.001 A 
ATOM     16  C   LIG d   1      31.819  -6.082  62.724  0.00  0.00     0.000 A 
ATOM     17  C   LIG d   1      30.548  -6.647  62.675  0.00  0.00     0.001 A 
ATOM     18  C   LIG d   1      30.372  -8.003  62.972  0.00  0.00     0.007 A 
ENDBRANCH  12  13
ENDBRANCH  11  12
ENDBRANCH   8  11
ENDBRANCH   7   8
ENDBRANCH   1   7
BRANCH   6  19
ATOM     19  N   LIG d   1      27.320 -12.382  67.498  0.00  0.00    -0.352 N 
ATOM     20  C   LIG d   1      27.327 -13.573  68.182  0.00  0.00     0.214 C 
ATOM     21  C   LIG d   1      25.998 -13.951  68.795  0.00  0.00     0.117 C 
ATOM     22  O   LIG d   1      28.332 -14.260  68.322  0.00  0.00    -0.274 OA
ATOM     23  H   LIG d   1      26.467 -11.899  67.419  0.00  0.00     0.163 HD
ENDBRANCH   6  19
BRANCH   3  24
ATOM     24  C   LIG d   1      26.780  -9.774  63.433  0.00  0.00     0.205 C 
ATOM     25  O   LIG d   1      26.103 -10.701  62.695  0.00  0.00    -0.644 OA
ATOM     26  O   LIG d   1      26.615  -8.587  63.268  0.00  0.00    -0.644 OA
ENDBRANCH   3  24
BRANCH   5  27
ATOM     27  N   LIG d   1      29.262  -9.513  67.761  0.00  0.00    -0.073 N 
ATOM     28  H   LIG d   1      29.790  -8.826  67.222  0.00  0.00     0.274 HD
ATOM     29  H   LIG d   1      29.905 -10.186  68.177  0.00  0.00     0.274 HD
ATOM     30  H   LIG d   1      28.741  -9.039  68.498  0.00  0.00     0.274 HD
ENDBRANCH   5  27
TORSDOF 9
ENDMDL
MODEL 4
REMARK VINA RESULT:      -6.4      2.399      5.573
REMARK  9 active torsions:
REMARK  status: ('A' for Active; 'I' for Inactive)
REMARK    1  A    between atoms: C_2  and  C_3 
REMARK    2  A    between atoms: C_3  and  C_4 
REMARK    3  A    between atoms: C_3  and  O_12 
REMARK    4  A    between atoms: C_4  and  C_5 
REMARK    5  A    between atoms: C_5  and  C_6 
REMARK    6  A    between atoms: C_13  and  O_12 
REMARK    7  A    between atoms: C_15  and  C_16 
REMARK    8  A    between atoms: C_20  and  N_21 
REMARK    9  A    between atoms: C_22  and  N_23 
REMARK       I    between atoms: N_23  and  C_24 
ROOT
ATOM      1  C   LIG d   1      30.070  -8.373  64.791  0.00  0.00     0.170 C 
ATOM      2  C   LIG d   1      31.133  -7.571  64.093  0.00  0.00     0.021 C 
ATOM      3  C   LIG d   1      31.668  -7.944  62.896  0.00  0.00     0.019 C 
ATOM      4  C   LIG d   1      31.144  -9.174  62.212  0.00  0.00     0.080 C 
ATOM      5  C   LIG d   1      30.873 -10.328  63.195  0.00  0.00     0.213 C 
ATOM      6  C   LIG d   1      30.359  -9.902  64.621  0.00  0.00     0.147 C 
ENDROOT
BRANCH   1   7
ATOM      7  O   LIG d   1      28.830  -7.869  64.270  0.00  0.00    -0.375 OA
BRANCH   7   8
ATOM      8  C   LIG d   1      27.653  -7.827  65.090  0.00  0.00     0.122 C 
BRANCH   8   9
ATOM      9  C   LIG d   1      26.496  -8.736  64.620  0.00  0.00     0.027 C 
ATOM     10  C   LIG d   1      26.878  -9.699  63.498  0.00  0.00     0.007 C 
ENDBRANCH   8   9
BRANCH   8  11
ATOM     11  C   LIG d   1      28.059  -8.235  66.537  0.00  0.00     0.036 C 
BRANCH  11  12
ATOM     12  C   LIG d   1      27.186  -9.348  67.132  0.00  0.00     0.041 C 
BRANCH  12  13
ATOM     13  C   LIG d   1      27.955 -10.627  67.412  0.00  0.00    -0.058 A 
ATOM     14  C   LIG d   1      28.895 -10.699  68.450  0.00  0.00     0.007 A 
ATOM     15  C   LIG d   1      29.560 -11.898  68.730  0.00  0.00     0.001 A 
ATOM     16  C   LIG d   1      29.310 -13.034  67.965  0.00  0.00     0.000 A 
ATOM     17  C   LIG d   1      28.413 -12.967  66.903  0.00  0.00     0.001 A 
ATOM     18  C   LIG d   1      27.741 -11.771  66.628  0.00  0.00     0.007 A 
ENDBRANCH  12  13
ENDBRANCH  11  12
ENDBRANCH   8  11
ENDBRANCH   7   8
ENDBRANCH   1   7
BRANCH   6  19
ATOM     19  N   LIG d   1      31.370 -10.373  65.610  0.00  0.00    -0.352 N 
ATOM     20  C   LIG d   1      31.789 -11.677  65.714  0.00  0.00     0.214 C 
ATOM     21  C   LIG d   1      32.873 -11.906  66.743  0.00  0.00     0.117 C 
ATOM     22  O   LIG d   1      31.352 -12.580  65.010  0.00  0.00    -0.274 OA
ATOM     23  H   LIG d   1      31.760  -9.711  66.225  0.00  0.00     0.163 HD
ENDBRANCH   6  19
BRANCH   3  24
ATOM     24  C   LIG d   1      32.739  -7.174  62.217  0.00  0.00     0.205 C 
ATOM     25  O   LIG d   1      32.229  -6.105  61.537  0.00  0.00    -0.644 OA
ATOM     26  O   LIG d   1      33.928  -7.396  62.251  0.00  0.00    -0.644 OA
ENDBRANCH   3  24
BRANCH   5  27
ATOM     27  N   LIG d   1      30.026 -11.355  62.560  0.00  0.00    -0.073 N 
ATOM     28  H   LIG d   1      30.618 -12.083  62.160  0.00  0.00     0.274 HD
ATOM     29  H   LIG d   1      29.469 -10.926  61.821  0.00  0.00     0.274 HD
ATOM     30  H   LIG d   1      29.408 -11.765  63.259  0.00  0.00     0.274 HD
ENDBRANCH   5  27
TORSDOF 9
ENDMDL
MODEL 5
REMARK VINA RESULT:      -6.2      1.118      1.645
REMARK  9 active torsions:
REMARK  status: ('A' for Active; 'I' for Inactive)
REMARK    1  A    between atoms: C_2  and  C_3 
REMARK    2  A    between atoms: C_3  and  C_4 
REMARK    3  A    between atoms: C_3  and  O_12 
REMARK    4  A    between atoms: C_4  and  C_5 
REMARK    5  A    between atoms: C_5  and  C_6 
REMARK    6  A    between atoms: C_13  and  O_12 
REMARK    7  A    between atoms: C_15  and  C_16 
REMARK    8  A    between atoms: C_20  and  N_21 
REMARK    9  A    between atoms: C_22  and  N_23 
REMARK       I    between atoms: N_23  and  C_24 
ROOT
ATOM      1  C   LIG d   1      29.526 -10.885  65.844  0.00  0.00     0.170 C 
ATOM      2  C   LIG d   1      30.957 -11.307  66.035  0.00  0.00     0.021 C 
ATOM      3  C   LIG d   1      31.303 -12.537  66.511  0.00  0.00     0.019 C 
ATOM      4  C   LIG d   1      30.222 -13.537  66.810  0.00  0.00     0.080 C 
ATOM      5  C   LIG d   1      28.994 -12.896  67.483  0.00  0.00     0.213 C 
ATOM      6  C   LIG d   1      28.649 -11.432  67.020  0.00  0.00     0.147 C 
ENDROOT
BRANCH   1   7
ATOM      7  O   LIG d   1      29.193 -11.310  64.513  0.00  0.00    -0.375 OA
BRANCH   7   8
ATOM      8  C   LIG d   1      28.593 -10.398  63.582  0.00  0.00     0.122 C 
BRANCH   8   9
ATOM      9  C   LIG d   1      28.096  -9.070  64.194  0.00  0.00     0.027 C 
ATOM     10  C   LIG d   1      26.697  -8.660  63.738  0.00  0.00     0.007 C 
ENDBRANCH   8   9
BRANCH   8  11
ATOM     11  C   LIG d   1      29.641 -10.081  62.475  0.00  0.00     0.036 C 
BRANCH  11  12
ATOM     12  C   LIG d   1      31.057  -9.840  63.016  0.00  0.00     0.041 C 
BRANCH  12  13
ATOM     13  C   LIG d   1      31.521  -8.404  62.861  0.00  0.00    -0.058 A 
ATOM     14  C   LIG d   1      32.868  -8.051  63.033  0.00  0.00     0.007 A 
ATOM     15  C   LIG d   1      33.292  -6.731  62.838  0.00  0.00     0.001 A 
ATOM     16  C   LIG d   1      32.374  -5.744  62.488  0.00  0.00     0.000 A 
ATOM     17  C   LIG d   1      31.027  -6.069  62.357  0.00  0.00     0.001 A 
ATOM     18  C   LIG d   1      30.604  -7.390  62.543  0.00  0.00     0.007 A 
ENDBRANCH  12  13
ENDBRANCH  11  12
ENDBRANCH   8  11
ENDBRANCH   7   8
ENDBRANCH   1   7
BRANCH   6  19
ATOM     19  N   LIG d   1      28.752 -10.556  68.222  0.00  0.00    -0.352 N 
ATOM     20  C   LIG d   1      28.086  -9.363  68.359  0.00  0.00     0.214 C 
ATOM     21  C   LIG d   1      28.288  -8.683  69.694  0.00  0.00     0.117 C 
ATOM     22  O   LIG d   1      27.356  -8.900  67.491  0.00  0.00    -0.274 OA
ATOM     23  H   LIG d   1      29.332 -10.850  68.961  0.00  0.00     0.163 HD
ENDBRANCH   6  19
BRANCH   3  24
ATOM     24  C   LIG d   1      32.711 -12.949  66.731  0.00  0.00     0.205 C 
ATOM     25  O   LIG d   1      33.060 -13.981  65.908  0.00  0.00    -0.644 OA
ATOM     26  O   LIG d   1      33.503 -12.453  67.498  0.00  0.00    -0.644 OA
ENDBRANCH   3  24
BRANCH   5  27
ATOM     27  N   LIG d   1      27.838 -13.810  67.415  0.00  0.00    -0.073 N 
ATOM     28  H   LIG d   1      26.977 -13.280  67.559  0.00  0.00     0.274 HD
ATOM     29  H   LIG d   1      27.924 -14.522  68.140  0.00  0.00     0.274 HD
ATOM     30  H   LIG d   1      27.812 -14.258  66.499  0.00  0.00     0.274 HD
ENDBRANCH   5  27
TORSDOF 9
ENDMDL
MODEL 6
REMARK VINA RESULT:      -6.1      2.143      4.220
REMARK  9 active torsions:
REMARK  status: ('A' for Active; 'I' for Inactive)
REMARK    1  A    between atoms: C_2  and  C_3 
REMARK    2  A    between atoms: C_3  and  C_4 
REMARK    3  A    between atoms: C_3  and  O_12 
REMARK    4  A    between atoms: C_4  and  C_5 
REMARK    5  A    between atoms: C_5  and  C_6 
REMARK    6  A    between atoms: C_13  and  O_12 
REMARK    7  A    between atoms: C_15  and  C_16 
REMARK    8  A    between atoms: C_20  and  N_21 
REMARK    9  A    between atoms: C_22  and  N_23 
REMARK       I    between atoms: N_23  and  C_24 
ROOT
ATOM      1  C   LIG d   1      29.927 -10.191  65.118  0.00  0.00     0.170 C 
ATOM      2  C   LIG d   1      29.674 -10.416  66.583  0.00  0.00     0.021 C 
ATOM      3  C   LIG d   1      28.841 -11.392  67.043  0.00  0.00     0.019 C 
ATOM      4  C   LIG d   1      28.187 -12.320  66.060  0.00  0.00     0.080 C 
ATOM      5  C   LIG d   1      27.703 -11.592  64.791  0.00  0.00     0.213 C 
ATOM      6  C   LIG d   1      28.599 -10.390  64.312  0.00  0.00     0.147 C 
ENDROOT
BRANCH   1   7
ATOM      7  O   LIG d   1      31.033 -11.051  64.800  0.00  0.00    -0.375 OA
BRANCH   7   8
ATOM      8  C   LIG d   1      32.379 -10.657  65.102  0.00  0.00     0.122 C 
BRANCH   8   9
ATOM      9  C   LIG d   1      33.236 -11.735  65.799  0.00  0.00     0.027 C 
ATOM     10  C   LIG d   1      32.422 -12.815  66.508  0.00  0.00     0.007 C 
ENDBRANCH   8   9
BRANCH   8  11
ATOM     11  C   LIG d   1      33.070 -10.245  63.769  0.00  0.00     0.036 C 
BRANCH  11  12
ATOM     12  C   LIG d   1      33.625  -8.814  63.778  0.00  0.00     0.041 C 
BRANCH  12  13
ATOM     13  C   LIG d   1      32.687  -7.804  63.143  0.00  0.00    -0.058 A 
ATOM     14  C   LIG d   1      32.980  -7.216  61.904  0.00  0.00     0.007 A 
ATOM     15  C   LIG d   1      32.082  -6.324  61.306  0.00  0.00     0.001 A 
ATOM     16  C   LIG d   1      30.891  -5.992  61.945  0.00  0.00     0.000 A 
ATOM     17  C   LIG d   1      30.606  -6.533  63.196  0.00  0.00     0.001 A 
ATOM     18  C   LIG d   1      31.498  -7.432  63.791  0.00  0.00     0.007 A 
ENDBRANCH  12  13
ENDBRANCH  11  12
ENDBRANCH   8  11
ENDBRANCH   7   8
ENDBRANCH   1   7
BRANCH   6  19
ATOM     19  N   LIG d   1      27.752  -9.165  64.358  0.00  0.00    -0.352 N 
ATOM     20  C   LIG d   1      26.602  -9.002  63.625  0.00  0.00     0.214 C 
ATOM     21  C   LIG d   1      25.870  -7.706  63.888  0.00  0.00     0.117 C 
ATOM     22  O   LIG d   1      26.176  -9.849  62.848  0.00  0.00    -0.274 OA
ATOM     23  H   LIG d   1      28.033  -8.430  64.949  0.00  0.00     0.163 HD
ENDBRANCH   6  19
BRANCH   3  24
ATOM     24  C   LIG d   1      28.563 -11.600  68.485  0.00  0.00     0.205 C 
ATOM     25  O   LIG d   1      27.986 -12.817  68.710  0.00  0.00    -0.644 OA
ATOM     26  O   LIG d   1      28.822 -10.843  69.393  0.00  0.00    -0.644 OA
ENDBRANCH   3  24
BRANCH   5  27
ATOM     27  N   LIG d   1      27.420 -12.564  63.719  0.00  0.00    -0.073 N 
ATOM     28  H   LIG d   1      26.816 -12.132  63.019  0.00  0.00     0.274 HD
ATOM     29  H   LIG d   1      26.953 -13.380  64.114  0.00  0.00     0.274 HD
ATOM     30  H   LIG d   1      28.295 -12.852  63.281  0.00  0.00     0.274 HD
ENDBRANCH   5  27
TORSDOF 9
ENDMDL
MODEL 7
REMARK VINA RESULT:      -6.0      2.664      7.005
REMARK  9 active torsions:
REMARK  status: ('A' for Active; 'I' for Inactive)
REMARK    1  A    between atoms: C_2  and  C_3 
REMARK    2  A    between atoms: C_3  and  C_4 
REMARK    3  A    between atoms: C_3  and  O_12 
REMARK    4  A    between atoms: C_4  and  C_5 
REMARK    5  A    between atoms: C_5  and  C_6 
REMARK    6  A    between atoms: C_13  and  O_12 
REMARK    7  A    between atoms: C_15  and  C_16 
REMARK    8  A    between atoms: C_20  and  N_21 
REMARK    9  A    between atoms: C_22  and  N_23 
REMARK       I    between atoms: N_23  and  C_24 
ROOT
ATOM      1  C   LIG d   1      29.901  -8.958  65.607  0.00  0.00     0.170 C 
ATOM      2  C   LIG d   1      28.519  -8.380  65.475  0.00  0.00     0.021 C 
ATOM      3  C   LIG d   1      27.660  -8.749  64.482  0.00  0.00     0.019 C 
ATOM      4  C   LIG d   1      28.081  -9.814  63.509  0.00  0.00     0.080 C 
ATOM      5  C   LIG d   1      29.554  -9.676  63.081  0.00  0.00     0.213 C 
ATOM      6  C   LIG d   1      30.538  -9.144  64.189  0.00  0.00     0.147 C 
ENDROOT
BRANCH   1   7
ATOM      7  O   LIG d   1      29.732 -10.130  66.419  0.00  0.00    -0.375 OA
BRANCH   7   8
ATOM      8  C   LIG d   1      30.692 -11.195  66.377  0.00  0.00     0.122 C 
BRANCH   8   9
ATOM      9  C   LIG d   1      31.335 -11.550  67.735  0.00  0.00     0.027 C 
ATOM     10  C   LIG d   1      30.834 -10.702  68.902  0.00  0.00     0.007 C 
ENDBRANCH   8   9
BRANCH   8  11
ATOM     11  C   LIG d   1      29.984 -12.460  65.807  0.00  0.00     0.036 C 
BRANCH  11  12
ATOM     12  C   LIG d   1      28.452 -12.379  65.845  0.00  0.00     0.041 C 
BRANCH  12  13
ATOM     13  C   LIG d   1      27.863 -12.793  67.181  0.00  0.00    -0.058 A 
ATOM     14  C   LIG d   1      26.824 -12.063  67.777  0.00  0.00     0.007 A 
ATOM     15  C   LIG d   1      26.256 -12.484  68.984  0.00  0.00     0.001 A 
ATOM     16  C   LIG d   1      26.731 -13.627  69.623  0.00  0.00     0.000 A 
ATOM     17  C   LIG d   1      27.792 -14.336  69.068  0.00  0.00     0.001 A 
ATOM     18  C   LIG d   1      28.354 -13.922  67.856  0.00  0.00     0.007 A 
ENDBRANCH  12  13
ENDBRANCH  11  12
ENDBRANCH   8  11
ENDBRANCH   7   8
ENDBRANCH   1   7
BRANCH   6  19
ATOM     19  N   LIG d   1      31.116  -7.865  63.685  0.00  0.00    -0.352 N 
ATOM     20  C   LIG d   1      32.052  -7.791  62.683  0.00  0.00     0.214 C 
ATOM     21  C   LIG d   1      32.439  -6.383  62.291  0.00  0.00     0.117 C 
ATOM     22  O   LIG d   1      32.514  -8.777  62.123  0.00  0.00    -0.274 OA
ATOM     23  H   LIG d   1      30.808  -7.025  64.094  0.00  0.00     0.163 HD
ENDBRANCH   6  19
BRANCH   3  24
ATOM     24  C   LIG d   1      26.307  -8.162  64.327  0.00  0.00     0.205 C 
ATOM     25  O   LIG d   1      25.741  -7.892  65.540  0.00  0.00    -0.644 OA
ATOM     26  O   LIG d   1      25.741  -7.903  63.290  0.00  0.00    -0.644 OA
ENDBRANCH   3  24
BRANCH   5  27
ATOM     27  N   LIG d   1      30.022 -10.921  62.444  0.00  0.00    -0.073 N 
ATOM     28  H   LIG d   1      30.265 -11.601  63.165  0.00  0.00     0.274 HD
ATOM     29  H   LIG d   1      30.843 -10.722  61.873  0.00  0.00     0.274 HD
ATOM     30  H   LIG d   1      29.281 -11.301  61.856  0.00  0.00     0.274 HD
ENDBRANCH   5  27
TORSDOF 9
ENDMDL
MODEL 8
REMARK VINA RESULT:      -6.0      2.360      4.396
REMARK  9 active torsions:
REMARK  status: ('A' for Active; 'I' for Inactive)
REMARK    1  A    between atoms: C_2  and  C_3 
REMARK    2  A    between atoms: C_3  and  C_4 
REMARK    3  A    between atoms: C_3  and  O_12 
REMARK    4  A    between atoms: C_4  and  C_5 
REMARK    5  A    between atoms: C_5  and  C_6 
REMARK    6  A    between atoms: C_13  and  O_12 
REMARK    7  A    between atoms: C_15  and  C_16 
REMARK    8  A    between atoms: C_20  and  N_21 
REMARK    9  A    between atoms: C_22  and  N_23 
REMARK       I    between atoms: N_23  and  C_24 
ROOT
ATOM      1  C   LIG d   1      28.183 -10.387  66.567  0.00  0.00     0.170 C 
ATOM      2  C   LIG d   1      27.670  -9.149  67.249  0.00  0.00     0.021 C 
ATOM      3  C   LIG d   1      28.450  -8.383  68.064  0.00  0.00     0.019 C 
ATOM      4  C   LIG d   1      29.895  -8.750  68.251  0.00  0.00     0.080 C 
ATOM      5  C   LIG d   1      30.106 -10.270  68.384  0.00  0.00     0.213 C 
ATOM      6  C   LIG d   1      29.137 -11.170  67.531  0.00  0.00     0.147 C 
ENDROOT
BRANCH   1   7
ATOM      7  O   LIG d   1      28.731  -9.921  65.324  0.00  0.00    -0.375 OA
BRANCH   7   8
ATOM      8  C   LIG d   1      28.096 -10.241  64.077  0.00  0.00     0.122 C 
BRANCH   8   9
ATOM      9  C   LIG d   1      26.946  -9.296  63.667  0.00  0.00     0.027 C 
ATOM     10  C   LIG d   1      27.326  -7.817  63.666  0.00  0.00     0.007 C 
ENDBRANCH   8   9
BRANCH   8  11
ATOM     11  C   LIG d   1      29.185 -10.224  62.964  0.00  0.00     0.036 C 
BRANCH  11  12
ATOM     12  C   LIG d   1      30.592  -9.896  63.483  0.00  0.00     0.041 C 
BRANCH  12  13
ATOM     13  C   LIG d   1      31.131  -8.577  62.960  0.00  0.00    -0.058 A 
ATOM     14  C   LIG d   1      31.500  -8.422  61.616  0.00  0.00     0.007 A 
ATOM     15  C   LIG d   1      31.947  -7.186  61.136  0.00  0.00     0.001 A 
ATOM     16  C   LIG d   1      32.052  -6.095  61.995  0.00  0.00     0.000 A 
ATOM     17  C   LIG d   1      31.733  -6.245  63.342  0.00  0.00     0.001 A 
ATOM     18  C   LIG d   1      31.276  -7.477  63.821  0.00  0.00     0.007 A 
ENDBRANCH  12  13
ENDBRANCH  11  12
ENDBRANCH   8  11
ENDBRANCH   7   8
ENDBRANCH   1   7
BRANCH   6  19
ATOM     19  N   LIG d   1      28.364 -12.012  68.488  0.00  0.00    -0.352 N 
ATOM     20  C   LIG d   1      28.187 -13.367  68.345  0.00  0.00     0.214 C 
ATOM     21  C   LIG d   1      27.427 -14.021  69.476  0.00  0.00     0.117 C 
ATOM     22  O   LIG d   1      28.637 -14.006  67.402  0.00  0.00    -0.274 OA
ATOM     23  H   LIG d   1      27.957 -11.571  69.268  0.00  0.00     0.163 HD
ENDBRANCH   6  19
BRANCH   3  24
ATOM     24  C   LIG d   1      27.943  -7.178  68.764  0.00  0.00     0.205 C 
ATOM     25  O   LIG d   1      26.786  -7.444  69.438  0.00  0.00    -0.644 OA
ATOM     26  O   LIG d   1      28.461  -6.085  68.799  0.00  0.00    -0.644 OA
ENDBRANCH   3  24
BRANCH   5  27
ATOM     27  N   LIG d   1      31.528 -10.609  68.188  0.00  0.00    -0.073 N 
ATOM     28  H   LIG d   1      31.880 -11.091  69.016  0.00  0.00     0.274 HD
ATOM     29  H   LIG d   1      32.064  -9.754  68.040  0.00  0.00     0.274 HD
ATOM     30  H   LIG d   1      31.625 -11.216  67.375  0.00  0.00     0.274 HD
ENDBRANCH   5  27
TORSDOF 9
ENDMDL
MODEL 9
REMARK VINA RESULT:      -5.9      2.506      3.996
REMARK  9 active torsions:
REMARK  status: ('A' for Active; 'I' for Inactive)
REMARK    1  A    between atoms: C_2  and  C_3 
REMARK    2  A    between atoms: C_3  and  C_4 
REMARK    3  A    between atoms: C_3  and  O_12 
REMARK    4  A    between atoms: C_4  and  C_5 
REMARK    5  A    between atoms: C_5  and  C_6 
REMARK    6  A    between atoms: C_13  and  O_12 
REMARK    7  A    between atoms: C_15  and  C_16 
REMARK    8  A    between atoms: C_20  and  N_21 
REMARK    9  A    between atoms: C_22  and  N_23 
REMARK       I    between atoms: N_23  and  C_24 
ROOT
ATOM      1  C   LIG d   1      30.841 -11.667  66.829  0.00  0.00     0.170 C 
ATOM      2  C   LIG d   1      29.816 -12.759  66.959  0.00  0.00     0.021 C 
ATOM      3  C   LIG d   1      28.755 -12.673  67.811  0.00  0.00     0.019 C 
ATOM      4  C   LIG d   1      28.562 -11.419  68.616  0.00  0.00     0.080 C 
ATOM      5  C   LIG d   1      29.888 -10.859  69.164  0.00  0.00     0.213 C 
ATOM      6  C   LIG d   1      31.145 -11.051  68.237  0.00  0.00     0.147 C 
ENDROOT
BRANCH   1   7
ATOM      7  O   LIG d   1      30.317 -10.790  65.819  0.00  0.00    -0.375 OA
BRANCH   7   8
ATOM      8  C   LIG d   1      29.709 -11.320  64.633  0.00  0.00     0.122 C 
BRANCH   8   9
ATOM      9  C   LIG d   1      28.283 -10.803  64.342  0.00  0.00     0.027 C 
ATOM     10  C   LIG d   1      27.238 -11.907  64.198  0.00  0.00     0.007 C 
ENDBRANCH   8   9
BRANCH   8  11
ATOM     11  C   LIG d   1      30.628 -10.974  63.424  0.00  0.00     0.036 C 
BRANCH  11  12
ATOM     12  C   LIG d   1      30.044  -9.904  62.492  0.00  0.00     0.041 C 
BRANCH  12  13
ATOM     13  C   LIG d   1      30.827  -8.604  62.507  0.00  0.00    -0.058 A 
ATOM     14  C   LIG d   1      31.552  -8.177  61.385  0.00  0.00     0.007 A 
ATOM     15  C   LIG d   1      32.229  -6.953  61.394  0.00  0.00     0.001 A 
ATOM     16  C   LIG d   1      32.209  -6.148  62.531  0.00  0.00     0.000 A 
ATOM     17  C   LIG d   1      31.532  -6.579  63.668  0.00  0.00     0.001 A 
ATOM     18  C   LIG d   1      30.847  -7.798  63.657  0.00  0.00     0.007 A 
ENDBRANCH  12  13
ENDBRANCH  11  12
ENDBRANCH   8  11
ENDBRANCH   7   8
ENDBRANCH   1   7
BRANCH   6  19
ATOM     19  N   LIG d   1      32.123 -11.885  68.991  0.00  0.00    -0.352 N 
ATOM     20  C   LIG d   1      33.477 -11.875  68.759  0.00  0.00     0.214 C 
ATOM     21  C   LIG d   1      34.279 -12.751  69.694  0.00  0.00     0.117 C 
ATOM     22  O   LIG d   1      34.003 -11.187  67.892  0.00  0.00    -0.274 OA
ATOM     23  H   LIG d   1      31.779 -12.479  69.696  0.00  0.00     0.163 HD
ENDBRANCH   6  19
BRANCH   3  24
ATOM     24  C   LIG d   1      27.757 -13.759  67.967  0.00  0.00     0.205 C 
ATOM     25  O   LIG d   1      26.527 -13.373  67.514  0.00  0.00    -0.644 OA
ATOM     26  O   LIG d   1      27.953 -14.871  68.400  0.00  0.00    -0.644 OA
ENDBRANCH   3  24
BRANCH   5  27
ATOM     27  N   LIG d   1      29.709  -9.465  69.611  0.00  0.00    -0.073 N 
ATOM     28  H   LIG d   1      28.737  -9.317  69.884  0.00  0.00     0.274 HD
ATOM     29  H   LIG d   1      29.948  -8.830  68.850  0.00  0.00     0.274 HD
ATOM     30  H   LIG d   1      30.317  -9.283  70.410  0.00  0.00     0.274 HD
ENDBRANCH   5  27
TORSDOF 9
ENDMDL
MODEL 10
REMARK VINA RESULT:      -5.7      2.697      5.712
REMARK  9 active torsions:
REMARK  status: ('A' for Active; 'I' for Inactive)
REMARK    1  A    between atoms: C_2  and  C_3 
REMARK    2  A    between atoms: C_3  and  C_4 
REMARK    3  A    between atoms: C_3  and  O_12 
REMARK    4  A    between atoms: C_4  and  C_5 
REMARK    5  A    between atoms: C_5  and  C_6 
REMARK    6  A    between atoms: C_13  and  O_12 
REMARK    7  A    between atoms: C_15  and  C_16 
REMARK    8  A    between atoms: C_20  and  N_21 
REMARK    9  A    between atoms: C_22  and  N_23 
REMARK       I    between atoms: N_23  and  C_24 
ROOT
ATOM      1  C   LIG d   1      29.452  -8.567  65.346  0.00  0.00     0.170 C 
ATOM      2  C   LIG d   1      28.199  -9.157  64.761  0.00  0.00     0.021 C 
ATOM      3  C   LIG d   1      28.195 -10.326  64.060  0.00  0.00     0.019 C 
ATOM      4  C   LIG d   1      29.479 -11.091  63.905  0.00  0.00     0.080 C 
ATOM      5  C   LIG d   1      30.686 -10.172  63.638  0.00  0.00     0.213 C 
ATOM      6  C   LIG d   1      30.649  -8.772  64.357  0.00  0.00     0.147 C 
ENDROOT
BRANCH   1   7
ATOM      7  O   LIG d   1      29.560  -9.156  66.651  0.00  0.00    -0.375 OA
BRANCH   7   8
ATOM      8  C   LIG d   1      29.355  -8.366  67.831  0.00  0.00     0.122 C 
BRANCH   8   9
ATOM      9  C   LIG d   1      27.896  -8.309  68.335  0.00  0.00     0.027 C 
ATOM     10  C   LIG d   1      27.108  -7.105  67.823  0.00  0.00     0.007 C 
ENDBRANCH   8   9
BRANCH   8  11
ATOM     11  C   LIG d   1      30.257  -8.944  68.961  0.00  0.00     0.036 C 
BRANCH  11  12
ATOM     12  C   LIG d   1      29.964 -10.413  69.293  0.00  0.00     0.041 C 
BRANCH  12  13
ATOM     13  C   LIG d   1      30.671 -11.389  68.371  0.00  0.00    -0.058 A 
ATOM     14  C   LIG d   1      32.069 -11.397  68.253  0.00  0.00     0.007 A 
ATOM     15  C   LIG d   1      32.712 -12.335  67.438  0.00  0.00     0.001 A 
ATOM     16  C   LIG d   1      31.968 -13.263  66.713  0.00  0.00     0.000 A 
ATOM     17  C   LIG d   1      30.578 -13.238  66.784  0.00  0.00     0.001 A 
ATOM     18  C   LIG d   1      29.934 -12.308  67.607  0.00  0.00     0.007 A 
ENDBRANCH  12  13
ENDBRANCH  11  12
ENDBRANCH   8  11
ENDBRANCH   7   8
ENDBRANCH   1   7
BRANCH   6  19
ATOM     19  N   LIG d   1      30.650  -7.731  63.290  0.00  0.00    -0.352 N 
ATOM     20  C   LIG d   1      31.772  -7.046  62.891  0.00  0.00     0.214 C 
ATOM     21  C   LIG d   1      31.545  -6.088  61.743  0.00  0.00     0.117 C 
ATOM     22  O   LIG d   1      32.876  -7.217  63.394  0.00  0.00    -0.274 OA
ATOM     23  H   LIG d   1      29.798  -7.523  62.845  0.00  0.00     0.163 HD
ENDBRANCH   6  19
BRANCH   3  24
ATOM     24  C   LIG d   1      26.968 -10.899  63.454  0.00  0.00     0.205 C 
ATOM     25  O   LIG d   1      26.810 -12.211  63.798  0.00  0.00    -0.644 OA
ATOM     26  O   LIG d   1      26.159 -10.322  62.766  0.00  0.00    -0.644 OA
ENDBRANCH   3  24
BRANCH   5  27
ATOM     27  N   LIG d   1      31.947 -10.903  63.865  0.00  0.00    -0.073 N 
ATOM     28  H   LIG d   1      32.391 -11.102  62.968  0.00  0.00     0.274 HD
ATOM     29  H   LIG d   1      31.749 -11.779  64.349  0.00  0.00     0.274 HD
ATOM     30  H   LIG d   1      32.572 -10.333  64.435  0.00  0.00     0.274 HD
ENDBRANCH   5  27
TORSDOF 9
ENDMDL
MODEL 11
REMARK VINA RESULT:      -5.5      2.286      4.060
REMARK  9 active torsions:
REMARK  status: ('A' for Active; 'I' for Inactive)
REMARK    1  A    between atoms: C_2  and  C_3 
REMARK    2  A    between atoms: C_3  and  C_4 
REMARK    3  A    between atoms: C_3  and  O_12 
REMARK    4  A    between atoms: C_4  and  C_5 
REMARK    5  A    between atoms: C_5  and  C_6 
REMARK    6  A    between atoms: C_13  and  O_12 
REMARK    7  A    between atoms: C_15  and  C_16 
REMARK    8  A    between atoms: C_20  and  N_21 
REMARK    9  A    between atoms: C_22  and  N_23 
REMARK       I    between atoms: N_23  and  C_24 
ROOT
ATOM      1  C   LIG d   1      29.718 -10.878  67.101  0.00  0.00     0.170 C 
ATOM      2  C   LIG d   1      28.923 -11.998  67.714  0.00  0.00     0.021 C 
ATOM      3  C   LIG d   1      27.767 -12.466  67.163  0.00  0.00     0.019 C 
ATOM      4  C   LIG d   1      27.288 -11.884  65.863  0.00  0.00     0.080 C 
ATOM      5  C   LIG d   1      27.473 -10.356  65.796  0.00  0.00     0.213 C 
ATOM      6  C   LIG d   1      28.749  -9.791  66.524  0.00  0.00     0.147 C 
ENDROOT
BRANCH   1   7
ATOM      7  O   LIG d   1      30.614 -11.524  66.183  0.00  0.00    -0.375 OA
BRANCH   7   8
ATOM      8  C   LIG d   1      31.858 -10.909  65.818  0.00  0.00     0.122 C 
BRANCH   8   9
ATOM      9  C   LIG d   1      33.121 -11.707  66.209  0.00  0.00     0.027 C 
ATOM     10  C   LIG d   1      33.258 -11.959  67.709  0.00  0.00     0.007 C 
ENDBRANCH   8   9
BRANCH   8  11
ATOM     11  C   LIG d   1      31.854 -10.693  64.276  0.00  0.00     0.036 C 
BRANCH  11  12
ATOM     12  C   LIG d   1      32.849  -9.624  63.801  0.00  0.00     0.041 C 
BRANCH  12  13
ATOM     13  C   LIG d   1      32.175  -8.387  63.236  0.00  0.00    -0.058 A 
ATOM     14  C   LIG d   1      32.870  -7.493  62.408  0.00  0.00     0.007 A 
ATOM     15  C   LIG d   1      32.223  -6.384  61.853  0.00  0.00     0.001 A 
ATOM     16  C   LIG d   1      30.881  -6.140  62.133  0.00  0.00     0.000 A 
ATOM     17  C   LIG d   1      30.190  -6.993  62.989  0.00  0.00     0.001 A 
ATOM     18  C   LIG d   1      30.832  -8.108  63.537  0.00  0.00     0.007 A 
ENDBRANCH  12  13
ENDBRANCH  11  12
ENDBRANCH   8  11
ENDBRANCH   7   8
ENDBRANCH   1   7
BRANCH   6  19
ATOM     19  N   LIG d   1      28.271  -8.872  67.596  0.00  0.00    -0.352 N 
ATOM     20  C   LIG d   1      28.960  -7.760  68.014  0.00  0.00     0.214 C 
ATOM     21  C   LIG d   1      28.247  -6.939  69.064  0.00  0.00     0.117 C 
ATOM     22  O   LIG d   1      30.046  -7.431  67.551  0.00  0.00    -0.274 OA
ATOM     23  H   LIG d   1      27.411  -9.074  68.030  0.00  0.00     0.163 HD
ENDBRANCH   6  19
BRANCH   3  24
ATOM     24  C   LIG d   1      26.962 -13.549  67.777  0.00  0.00     0.205 C 
ATOM     25  O   LIG d   1      27.745 -14.611  68.130  0.00  0.00    -0.644 OA
ATOM     26  O   LIG d   1      25.772 -13.538  67.994  0.00  0.00    -0.644 OA
ENDBRANCH   3  24
BRANCH   5  27
ATOM     27  N   LIG d   1      27.349  -9.886  64.403  0.00  0.00    -0.073 N 
ATOM     28  H   LIG d   1      27.948  -9.071  64.265  0.00  0.00     0.274 HD
ATOM     29  H   LIG d   1      26.380  -9.631  64.216  0.00  0.00     0.274 HD
ATOM     30  H   LIG d   1      27.635 -10.629  63.767  0.00  0.00     0.274 HD
ENDBRANCH   5  27
TORSDOF 9
ENDMDL
MODEL 12
REMARK VINA RESULT:      -5.5      2.303      3.841
REMARK  9 active torsions:
REMARK  status: ('A' for Active; 'I' for Inactive)
REMARK    1  A    between atoms: C_2  and  C_3 
REMARK    2  A    between atoms: C_3  and  C_4 
REMARK    3  A    between atoms: C_3  and  O_12 
REMARK    4  A    between atoms: C_4  and  C_5 
REMARK    5  A    between atoms: C_5  and  C_6 
REMARK    6  A    between atoms: C_13  and  O_12 
REMARK    7  A    between atoms: C_15  and  C_16 
REMARK    8  A    between atoms: C_20  and  N_21 
REMARK    9  A    between atoms: C_22  and  N_23 
REMARK       I    between atoms: N_23  and  C_24 
ROOT
ATOM      1  C   LIG d   1      28.918 -11.071  65.933  0.00  0.00     0.170 C 
ATOM      2  C   LIG d   1      28.060 -12.231  66.356  0.00  0.00     0.021 C 
ATOM      3  C   LIG d   1      27.886 -12.578  67.663  0.00  0.00     0.019 C 
ATOM      4  C   LIG d   1      28.528 -11.743  68.734  0.00  0.00     0.080 C 
ATOM      5  C   LIG d   1      29.954 -11.297  68.361  0.00  0.00     0.213 C 
ATOM      6  C   LIG d   1      30.197 -10.999  66.834  0.00  0.00     0.147 C 
ENDROOT
BRANCH   1   7
ATOM      7  O   LIG d   1      28.034  -9.939  65.942  0.00  0.00    -0.375 OA
BRANCH   7   8
ATOM      8  C   LIG d   1      27.404  -9.491  64.733  0.00  0.00     0.122 C 
BRANCH   8   9
ATOM      9  C   LIG d   1      26.494  -8.254  64.890  0.00  0.00     0.027 C 
ATOM     10  C   LIG d   1      26.195  -7.880  66.340  0.00  0.00     0.007 C 
ENDBRANCH   8   9
BRANCH   8  11
ATOM     11  C   LIG d   1      28.521  -9.169  63.698  0.00  0.00     0.036 C 
BRANCH  11  12
ATOM     12  C   LIG d   1      28.848  -7.673  63.589  0.00  0.00     0.041 C 
BRANCH  12  13
ATOM     13  C   LIG d   1      30.282  -7.402  63.171  0.00  0.00    -0.058 A 
ATOM     14  C   LIG d   1      30.589  -6.423  62.215  0.00  0.00     0.007 A 
ATOM     15  C   LIG d   1      31.918  -6.148  61.876  0.00  0.00     0.001 A 
ATOM     16  C   LIG d   1      32.957  -6.860  62.471  0.00  0.00     0.000 A 
ATOM     17  C   LIG d   1      32.666  -7.866  63.388  0.00  0.00     0.001 A 
ATOM     18  C   LIG d   1      31.338  -8.135  63.735  0.00  0.00     0.007 A 
ENDBRANCH  12  13
ENDBRANCH  11  12
ENDBRANCH   8  11
ENDBRANCH   7   8
ENDBRANCH   1   7
BRANCH   6  19
ATOM     19  N   LIG d   1      31.243 -11.950  66.362  0.00  0.00    -0.352 N 
ATOM     20  C   LIG d   1      32.526 -11.981  66.852  0.00  0.00     0.214 C 
ATOM     21  C   LIG d   1      33.390 -13.078  66.273  0.00  0.00     0.117 C 
ATOM     22  O   LIG d   1      32.933 -11.212  67.714  0.00  0.00    -0.274 OA
ATOM     23  H   LIG d   1      31.000 -12.594  65.659  0.00  0.00     0.163 HD
ENDBRANCH   6  19
BRANCH   3  24
ATOM     24  C   LIG d   1      27.065 -13.739  68.085  0.00  0.00     0.205 C 
ATOM     25  O   LIG d   1      25.743 -13.542  67.807  0.00  0.00    -0.644 OA
ATOM     26  O   LIG d   1      27.462 -14.767  68.585  0.00  0.00    -0.644 OA
ENDBRANCH   3  24
BRANCH   5  27
ATOM     27  N   LIG d   1      30.394 -10.198  69.240  0.00  0.00    -0.073 N 
ATOM     28  H   LIG d   1      30.595  -9.371  68.676  0.00  0.00     0.274 HD
ATOM     29  H   LIG d   1      31.235 -10.480  69.742  0.00  0.00     0.274 HD
ATOM     30  H   LIG d   1      29.655  -9.981  69.908  0.00  0.00     0.274 HD
ENDBRANCH   5  27
TORSDOF 9
ENDMDL
MODEL 13
REMARK VINA RESULT:      -5.1      2.844      6.521
REMARK  9 active torsions:
REMARK  status: ('A' for Active; 'I' for Inactive)
REMARK    1  A    between atoms: C_2  and  C_3 
REMARK    2  A    between atoms: C_3  and  C_4 
REMARK    3  A    between atoms: C_3  and  O_12 
REMARK    4  A    between atoms: C_4  and  C_5 
REMARK    5  A    between atoms: C_5  and  C_6 
REMARK    6  A    between atoms: C_13  and  O_12 
REMARK    7  A    between atoms: C_15  and  C_16 
REMARK    8  A    between atoms: C_20  and  N_21 
REMARK    9  A    between atoms: C_22  and  N_23 
REMARK       I    between atoms: N_23  and  C_24 
ROOT
ATOM      1  C   LIG d   1      29.383  -8.737  65.427  0.00  0.00     0.170 C 
ATOM      2  C   LIG d   1      28.120  -9.250  64.793  0.00  0.00     0.021 C 
ATOM      3  C   LIG d   1      28.099 -10.340  63.973  0.00  0.00     0.019 C 
ATOM      4  C   LIG d   1      29.374 -11.097  63.731  0.00  0.00     0.080 C 
ATOM      5  C   LIG d   1      30.590 -10.168  63.553  0.00  0.00     0.213 C 
ATOM      6  C   LIG d   1      30.572  -8.850  64.414  0.00  0.00     0.147 C 
ENDROOT
BRANCH   1   7
ATOM      7  O   LIG d   1      29.492  -9.460  66.663  0.00  0.00    -0.375 OA
BRANCH   7   8
ATOM      8  C   LIG d   1      28.732  -9.064  67.814  0.00  0.00     0.122 C 
BRANCH   8   9
ATOM      9  C   LIG d   1      28.281  -7.587  67.822  0.00  0.00     0.027 C 
ATOM     10  C   LIG d   1      26.765  -7.399  67.814  0.00  0.00     0.007 C 
ENDBRANCH   8   9
BRANCH   8  11
ATOM     11  C   LIG d   1      27.473  -9.977  67.897  0.00  0.00     0.036 C 
BRANCH  11  12
ATOM     12  C   LIG d   1      27.505 -10.965  69.071  0.00  0.00     0.041 C 
BRANCH  12  13
ATOM     13  C   LIG d   1      27.923 -12.366  68.663  0.00  0.00    -0.058 A 
ATOM     14  C   LIG d   1      27.019 -13.438  68.709  0.00  0.00     0.007 A 
ATOM     15  C   LIG d   1      27.403 -14.715  68.282  0.00  0.00     0.001 A 
ATOM     16  C   LIG d   1      28.698 -14.943  67.824  0.00  0.00     0.000 A 
ATOM     17  C   LIG d   1      29.619 -13.899  67.816  0.00  0.00     0.001 A 
ATOM     18  C   LIG d   1      29.235 -12.621  68.232  0.00  0.00     0.007 A 
ENDBRANCH  12  13
ENDBRANCH  11  12
ENDBRANCH   8  11
ENDBRANCH   7   8
ENDBRANCH   1   7
BRANCH   6  19
ATOM     19  N   LIG d   1      30.579  -7.704  63.461  0.00  0.00    -0.352 N 
ATOM     20  C   LIG d   1      31.703  -7.253  62.815  0.00  0.00     0.214 C 
ATOM     21  C   LIG d   1      31.456  -6.122  61.842  0.00  0.00     0.117 C 
ATOM     22  O   LIG d   1      32.814  -7.744  62.980  0.00  0.00    -0.274 OA
ATOM     23  H   LIG d   1      29.727  -7.243  63.284  0.00  0.00     0.163 HD
ENDBRANCH   6  19
BRANCH   3  24
ATOM     24  C   LIG d   1      26.863 -10.834  63.320  0.00  0.00     0.205 C 
ATOM     25  O   LIG d   1      26.580 -12.116  63.695  0.00  0.00    -0.644 OA
ATOM     26  O   LIG d   1      26.140 -10.218  62.570  0.00  0.00    -0.644 OA
ENDBRANCH   3  24
BRANCH   5  27
ATOM     27  N   LIG d   1      31.843 -10.931  63.694  0.00  0.00    -0.073 N 
ATOM     28  H   LIG d   1      31.859 -11.394  64.604  0.00  0.00     0.274 HD
ATOM     29  H   LIG d   1      32.638 -10.296  63.623  0.00  0.00     0.274 HD
ATOM     30  H   LIG d   1      31.900 -11.632  62.956  0.00  0.00     0.274 HD
ENDBRANCH   5  27
TORSDOF 9
ENDMDL
MODEL 14
REMARK VINA RESULT:      -5.1      2.248      4.375
REMARK  9 active torsions:
REMARK  status: ('A' for Active; 'I' for Inactive)
REMARK    1  A    between atoms: C_2  and  C_3 
REMARK    2  A    between atoms: C_3  and  C_4 
REMARK    3  A    between atoms: C_3  and  O_12 
REMARK    4  A    between atoms: C_4  and  C_5 
REMARK    5  A    between atoms: C_5  and  C_6 
REMARK    6  A    between atoms: C_13  and  O_12 
REMARK    7  A    between atoms: C_15  and  C_16 
REMARK    8  A    between atoms: C_20  and  N_21 
REMARK    9  A    between atoms: C_22  and  N_23 
REMARK       I    between atoms: N_23  and  C_24 
ROOT
ATOM      1  C   LIG d   1      31.221 -11.215  64.354  0.00  0.00     0.170 C 
ATOM      2  C   LIG d   1      29.860 -11.466  63.766  0.00  0.00     0.021 C 
ATOM      3  C   LIG d   1      28.735 -10.850  64.228  0.00  0.00     0.019 C 
ATOM      4  C   LIG d   1      28.855  -9.837  65.331  0.00  0.00     0.080 C 
ATOM      5  C   LIG d   1      29.860 -10.263  66.418  0.00  0.00     0.213 C 
ATOM      6  C   LIG d   1      31.111 -11.073  65.910  0.00  0.00     0.147 C 
ENDROOT
BRANCH   1   7
ATOM      7  O   LIG d   1      31.736 -10.093  63.620  0.00  0.00    -0.375 OA
BRANCH   7   8
ATOM      8  C   LIG d   1      32.704 -10.282  62.578  0.00  0.00     0.122 C 
BRANCH   8   9
ATOM      9  C   LIG d   1      32.279  -9.759  61.188  0.00  0.00     0.027 C 
ATOM     10  C   LIG d   1      30.768  -9.627  61.008  0.00  0.00     0.007 C 
ENDBRANCH   8   9
BRANCH   8  11
ATOM     11  C   LIG d   1      34.019  -9.567  63.006  0.00  0.00     0.036 C 
BRANCH  11  12
ATOM     12  C   LIG d   1      33.788  -8.259  63.775  0.00  0.00     0.041 C 
BRANCH  12  13
ATOM     13  C   LIG d   1      32.714  -7.383  63.156  0.00  0.00    -0.058 A 
ATOM     14  C   LIG d   1      32.930  -6.712  61.943  0.00  0.00     0.007 A 
ATOM     15  C   LIG d   1      31.914  -5.948  61.358  0.00  0.00     0.001 A 
ATOM     16  C   LIG d   1      30.677  -5.826  61.986  0.00  0.00     0.000 A 
ATOM     17  C   LIG d   1      30.463  -6.447  63.212  0.00  0.00     0.001 A 
ATOM     18  C   LIG d   1      31.474  -7.220  63.794  0.00  0.00     0.007 A 
ENDBRANCH  12  13
ENDBRANCH  11  12
ENDBRANCH   8  11
ENDBRANCH   7   8
ENDBRANCH   1   7
BRANCH   6  19
ATOM     19  N   LIG d   1      31.067 -12.408  66.571  0.00  0.00    -0.352 N 
ATOM     20  C   LIG d   1      31.388 -12.620  67.890  0.00  0.00     0.214 C 
ATOM     21  C   LIG d   1      31.202 -14.045  68.358  0.00  0.00     0.117 C 
ATOM     22  O   LIG d   1      31.760 -11.726  68.641  0.00  0.00    -0.274 OA
ATOM     23  H   LIG d   1      30.791 -13.184  66.031  0.00  0.00     0.163 HD
ENDBRANCH   6  19
BRANCH   3  24
ATOM     24  C   LIG d   1      27.385 -11.116  63.673  0.00  0.00     0.205 C 
ATOM     25  O   LIG d   1      26.877 -10.013  63.050  0.00  0.00    -0.644 OA
ATOM     26  O   LIG d   1      26.777 -12.161  63.708  0.00  0.00    -0.644 OA
ENDBRANCH   3  24
BRANCH   5  27
ATOM     27  N   LIG d   1      30.224  -9.109  67.260  0.00  0.00    -0.073 N 
ATOM     28  H   LIG d   1      31.240  -9.043  67.326  0.00  0.00     0.274 HD
ATOM     29  H   LIG d   1      29.830  -9.230  68.193  0.00  0.00     0.274 HD
ATOM     30  H   LIG d   1      29.855  -8.254  66.843  0.00  0.00     0.274 HD
ENDBRANCH   5  27
TORSDOF 9
ENDMDL
MODEL 15
REMARK VINA RESULT:      -4.9      2.262      4.523
REMARK  9 active torsions:
REMARK  status: ('A' for Active; 'I' for Inactive)
REMARK    1  A    between atoms: C_2  and  C_3 
REMARK    2  A    between atoms: C_3  and  C_4 
REMARK    3  A    between atoms: C_3  and  O_12 
REMARK    4  A    between atoms: C_4  and  C_5 
REMARK    5  A    between atoms: C_5  and  C_6 
REMARK    6  A    between atoms: C_13  and  O_12 
REMARK    7  A    between atoms: C_15  and  C_16 
REMARK    8  A    between atoms: C_20  and  N_21 
REMARK    9  A    between atoms: C_22  and  N_23 
REMARK       I    between atoms: N_23  and  C_24 
ROOT
ATOM      1  C   LIG d   1      30.199 -11.529  66.533  0.00  0.00     0.170 C 
ATOM      2  C   LIG d   1      30.045 -10.116  67.025  0.00  0.00     0.021 C 
ATOM      3  C   LIG d   1      30.444  -9.724  68.268  0.00  0.00     0.019 C 
ATOM      4  C   LIG d   1      31.114 -10.721  69.171  0.00  0.00     0.080 C 
ATOM      5  C   LIG d   1      30.458 -12.113  69.104  0.00  0.00     0.213 C 
ATOM      6  C   LIG d   1      29.894 -12.533  67.696  0.00  0.00     0.147 C 
ENDROOT
BRANCH   1   7
ATOM      7  O   LIG d   1      31.508 -11.572  65.944  0.00  0.00    -0.375 OA
BRANCH   7   8
ATOM      8  C   LIG d   1      31.927 -10.562  65.015  0.00  0.00     0.122 C 
BRANCH   8   9
ATOM      9  C   LIG d   1      33.454 -10.456  64.809  0.00  0.00     0.027 C 
ATOM     10  C   LIG d   1      33.860  -9.890  63.450  0.00  0.00     0.007 C 
ENDBRANCH   8   9
BRANCH   8  11
ATOM     11  C   LIG d   1      31.252 -10.859  63.643  0.00  0.00     0.036 C 
BRANCH  11  12
ATOM     12  C   LIG d   1      30.167  -9.843  63.257  0.00  0.00     0.041 C 
BRANCH  12  13
ATOM     13  C   LIG d   1      30.730  -8.551  62.694  0.00  0.00    -0.058 A 
ATOM     14  C   LIG d   1      31.518  -8.544  61.534  0.00  0.00     0.007 A 
ATOM     15  C   LIG d   1      31.989  -7.340  60.997  0.00  0.00     0.001 A 
ATOM     16  C   LIG d   1      31.697  -6.131  61.622  0.00  0.00     0.000 A 
ATOM     17  C   LIG d   1      30.954  -6.125  62.800  0.00  0.00     0.001 A 
ATOM     18  C   LIG d   1      30.475  -7.326  63.332  0.00  0.00     0.007 A 
ENDBRANCH  12  13
ENDBRANCH  11  12
ENDBRANCH   8  11
ENDBRANCH   7   8
ENDBRANCH   1   7
BRANCH   6  19
ATOM     19  N   LIG d   1      28.427 -12.743  67.856  0.00  0.00    -0.352 N 
ATOM     20  C   LIG d   1      27.853 -13.963  68.117  0.00  0.00     0.214 C 
ATOM     21  C   LIG d   1      26.354 -13.921  68.309  0.00  0.00     0.117 C 
ATOM     22  O   LIG d   1      28.498 -14.999  68.223  0.00  0.00    -0.274 OA
ATOM     23  H   LIG d   1      27.835 -11.961  67.770  0.00  0.00     0.163 HD
ENDBRANCH   6  19
BRANCH   3  24
ATOM     24  C   LIG d   1      30.269  -8.339  68.771  0.00  0.00     0.205 C 
ATOM     25  O   LIG d   1      29.298  -7.677  68.076  0.00  0.00    -0.644 OA
ATOM     26  O   LIG d   1      30.855  -7.821  69.693  0.00  0.00    -0.644 OA
ENDBRANCH   3  24
BRANCH   5  27
ATOM     27  N   LIG d   1      31.351 -13.128  69.693  0.00  0.00    -0.073 N 
ATOM     28  H   LIG d   1      31.155 -13.214  70.691  0.00  0.00     0.274 HD
ATOM     29  H   LIG d   1      32.322 -12.846  69.561  0.00  0.00     0.274 HD
ATOM     30  H   LIG d   1      31.192 -14.027  69.238  0.00  0.00     0.274 HD
ENDBRANCH   5  27
TORSDOF 9
ENDMDL
MODEL 16
REMARK VINA RESULT:      -4.7      2.501      3.430
REMARK  9 active torsions:
REMARK  status: ('A' for Active; 'I' for Inactive)
REMARK    1  A    between atoms: C_2  and  C_3 
REMARK    2  A    between atoms: C_3  and  C_4 
REMARK    3  A    between atoms: C_3  and  O_12 
REMARK    4  A    between atoms: C_4  and  C_5 
REMARK    5  A    between atoms: C_5  and  C_6 
REMARK    6  A    between atoms: C_13  and  O_12 
REMARK    7  A    between atoms: C_15  and  C_16 
REMARK    8  A    between atoms: C_20  and  N_21 
REMARK    9  A    between atoms: C_22  and  N_23 
REMARK       I    between atoms: N_23  and  C_24 
ROOT
ATOM      1  C   LIG d   1      29.008 -11.408  65.865  0.00  0.00     0.170 C 
ATOM      2  C   LIG d   1      28.512 -12.679  66.495  0.00  0.00     0.021 C 
ATOM      3  C   LIG d   1      27.636 -12.688  67.540  0.00  0.00     0.019 C 
ATOM      4  C   LIG d   1      27.098 -11.383  68.055  0.00  0.00     0.080 C 
ATOM      5  C   LIG d   1      28.173 -10.281  68.111  0.00  0.00     0.213 C 
ATOM      6  C   LIG d   1      29.256 -10.326  66.970  0.00  0.00     0.147 C 
ENDROOT
BRANCH   1   7
ATOM      7  O   LIG d   1      28.045 -11.105  64.843  0.00  0.00    -0.375 OA
BRANCH   7   8
ATOM      8  C   LIG d   1      28.363 -10.191  63.784  0.00  0.00     0.122 C 
BRANCH   8   9
ATOM      9  C   LIG d   1      27.847  -8.750  63.988  0.00  0.00     0.027 C 
ATOM     10  C   LIG d   1      26.350  -8.583  63.738  0.00  0.00     0.007 C 
ENDBRANCH   8   9
BRANCH   8  11
ATOM     11  C   LIG d   1      29.912 -10.156  63.626  0.00  0.00     0.036 C 
BRANCH  11  12
ATOM     12  C   LIG d   1      30.381  -9.608  62.271  0.00  0.00     0.041 C 
BRANCH  12  13
ATOM     13  C   LIG d   1      31.147  -8.303  62.385  0.00  0.00    -0.058 A 
ATOM     14  C   LIG d   1      30.519  -7.068  62.167  0.00  0.00     0.007 A 
ATOM     15  C   LIG d   1      31.224  -5.870  62.324  0.00  0.00     0.001 A 
ATOM     16  C   LIG d   1      32.570  -5.889  62.682  0.00  0.00     0.000 A 
ATOM     17  C   LIG d   1      33.219  -7.108  62.858  0.00  0.00     0.001 A 
ATOM     18  C   LIG d   1      32.513  -8.306  62.710  0.00  0.00     0.007 A 
ENDBRANCH  12  13
ENDBRANCH  11  12
ENDBRANCH   8  11
ENDBRANCH   7   8
ENDBRANCH   1   7
BRANCH   6  19
ATOM     19  N   LIG d   1      30.579 -10.522  67.628  0.00  0.00    -0.352 N 
ATOM     20  C   LIG d   1      30.732 -10.905  68.938  0.00  0.00     0.214 C 
ATOM     21  C   LIG d   1      32.168 -11.108  69.367  0.00  0.00     0.117 C 
ATOM     22  O   LIG d   1      29.788 -11.104  69.693  0.00  0.00    -0.274 OA
ATOM     23  H   LIG d   1      31.390 -10.367  67.093  0.00  0.00     0.163 HD
ENDBRANCH   6  19
BRANCH   3  24
ATOM     24  C   LIG d   1      27.166 -13.937  68.188  0.00  0.00     0.205 C 
ATOM     25  O   LIG d   1      28.107 -14.440  69.040  0.00  0.00    -0.644 OA
ATOM     26  O   LIG d   1      26.089 -14.469  68.045  0.00  0.00    -0.644 OA
ENDBRANCH   3  24
BRANCH   5  27
ATOM     27  N   LIG d   1      27.541  -8.956  68.253  0.00  0.00    -0.073 N 
ATOM     28  H   LIG d   1      27.044  -8.910  69.144  0.00  0.00     0.274 HD
ATOM     29  H   LIG d   1      26.882  -8.810  67.489  0.00  0.00     0.274 HD
ATOM     30  H   LIG d   1      28.258  -8.232  68.227  0.00  0.00     0.274 HD
ENDBRANCH   5  27
TORSDOF 9
ENDMDL
MODEL 17
REMARK VINA RESULT:      -4.6      2.173      4.117
REMARK  9 active torsions:
REMARK  status: ('A' for Active; 'I' for Inactive)
REMARK    1  A    between atoms: C_2  and  C_3 
REMARK    2  A    between atoms: C_3  and  C_4 
REMARK    3  A    between atoms: C_3  and  O_12 
REMARK    4  A    between atoms: C_4  and  C_5 
REMARK    5  A    between atoms: C_5  and  C_6 
REMARK    6  A    between atoms: C_13  and  O_12 
REMARK    7  A    between atoms: C_15  and  C_16 
REMARK    8  A    between atoms: C_20  and  N_21 
REMARK    9  A    between atoms: C_22  and  N_23 
REMARK       I    between atoms: N_23  and  C_24 
ROOT
ATOM      1  C   LIG d   1      30.774 -11.412  64.115  0.00  0.00     0.170 C 
ATOM      2  C   LIG d   1      29.396 -11.625  63.552  0.00  0.00     0.021 C 
ATOM      3  C   LIG d   1      28.274 -11.129  64.147  0.00  0.00     0.019 C 
ATOM      4  C   LIG d   1      28.413 -10.290  65.385  0.00  0.00     0.080 C 
ATOM      5  C   LIG d   1      29.480 -10.835  66.353  0.00  0.00     0.213 C 
ATOM      6  C   LIG d   1      30.731 -11.510  65.677  0.00  0.00     0.147 C 
ENDROOT
BRANCH   1   7
ATOM      7  O   LIG d   1      31.218 -10.174  63.539  0.00  0.00    -0.375 OA
BRANCH   7   8
ATOM      8  C   LIG d   1      30.395  -9.464  62.601  0.00  0.00     0.122 C 
BRANCH   8   9
ATOM      9  C   LIG d   1      29.923  -8.071  63.070  0.00  0.00     0.027 C 
ATOM     10  C   LIG d   1      30.422  -7.679  64.459  0.00  0.00     0.007 C 
ENDBRANCH   8   9
BRANCH   8  11
ATOM     11  C   LIG d   1      31.199  -9.307  61.277  0.00  0.00     0.036 C 
BRANCH  11  12
ATOM     12  C   LIG d   1      32.720  -9.373  61.468  0.00  0.00     0.041 C 
BRANCH  12  13
ATOM     13  C   LIG d   1      33.284  -8.173  62.206  0.00  0.00    -0.058 A 
ATOM     14  C   LIG d   1      32.718  -6.897  62.063  0.00  0.00     0.007 A 
ATOM     15  C   LIG d   1      33.215  -5.809  62.788  0.00  0.00     0.001 A 
ATOM     16  C   LIG d   1      34.297  -5.974  63.649  0.00  0.00     0.000 A 
ATOM     17  C   LIG d   1      34.899  -7.224  63.768  0.00  0.00     0.001 A 
ATOM     18  C   LIG d   1      34.397  -8.315  63.051  0.00  0.00     0.007 A 
ENDBRANCH  12  13
ENDBRANCH  11  12
ENDBRANCH   8  11
ENDBRANCH   7   8
ENDBRANCH   1   7
BRANCH   6  19
ATOM     19  N   LIG d   1      30.761 -12.930  66.129  0.00  0.00    -0.352 N 
ATOM     20  C   LIG d   1      31.146 -13.325  67.387  0.00  0.00     0.214 C 
ATOM     21  C   LIG d   1      31.028 -14.810  67.641  0.00  0.00     0.117 C 
ATOM     22  O   LIG d   1      31.520 -12.540  68.251  0.00  0.00    -0.274 OA
ATOM     23  H   LIG d   1      30.488 -13.626  65.489  0.00  0.00     0.163 HD
ENDBRANCH   6  19
BRANCH   3  24
ATOM     24  C   LIG d   1      26.909 -11.361  63.614  0.00  0.00     0.205 C 
ATOM     25  O   LIG d   1      26.433 -10.255  62.969  0.00  0.00    -0.644 OA
ATOM     26  O   LIG d   1      26.266 -12.383  63.681  0.00  0.00    -0.644 OA
ENDBRANCH   3  24
BRANCH   5  27
ATOM     27  N   LIG d   1      29.845  -9.807  67.345  0.00  0.00    -0.073 N 
ATOM     28  H   LIG d   1      30.860  -9.713  67.379  0.00  0.00     0.274 HD
ATOM     29  H   LIG d   1      29.498 -10.082  68.264  0.00  0.00     0.274 HD
ATOM     30  H   LIG d   1      29.430  -8.914  67.078  0.00  0.00     0.274 HD
ENDBRANCH   5  27
TORSDOF 9
ENDMDL
MODEL 18
REMARK VINA RESULT:      -4.4      2.404      5.624
REMARK  9 active torsions:
REMARK  status: ('A' for Active; 'I' for Inactive)
REMARK    1  A    between atoms: C_2  and  C_3 
REMARK    2  A    between atoms: C_3  and  C_4 
REMARK    3  A    between atoms: C_3  and  O_12 
REMARK    4  A    between atoms: C_4  and  C_5 
REMARK    5  A    between atoms: C_5  and  C_6 
REMARK    6  A    between atoms: C_13  and  O_12 
REMARK    7  A    between atoms: C_15  and  C_16 
REMARK    8  A    between atoms: C_20  and  N_21 
REMARK    9  A    between atoms: C_22  and  N_23 
REMARK       I    between atoms: N_23  and  C_24 
ROOT
ATOM      1  C   LIG d   1      28.428  -9.149  66.382  0.00  0.00     0.170 C 
ATOM      2  C   LIG d   1      27.805  -7.945  67.031  0.00  0.00     0.021 C 
ATOM      3  C   LIG d   1      28.300  -7.386  68.172  0.00  0.00     0.019 C 
ATOM      4  C   LIG d   1      29.550  -7.955  68.782  0.00  0.00     0.080 C 
ATOM      5  C   LIG d   1      29.580  -9.495  68.741  0.00  0.00     0.213 C 
ATOM      6  C   LIG d   1      28.911 -10.156  67.479  0.00  0.00     0.147 C 
ENDROOT
BRANCH   1   7
ATOM      7  O   LIG d   1      29.418  -8.613  65.490  0.00  0.00    -0.375 OA
BRANCH   7   8
ATOM      8  C   LIG d   1      29.719  -9.269  64.250  0.00  0.00     0.122 C 
BRANCH   8   9
ATOM      9  C   LIG d   1      29.859  -8.331  63.031  0.00  0.00     0.027 C 
ATOM     10  C   LIG d   1      31.063  -8.640  62.143  0.00  0.00     0.007 C 
ENDBRANCH   8   9
BRANCH   8  11
ATOM     11  C   LIG d   1      31.047 -10.061  64.433  0.00  0.00     0.036 C 
BRANCH  11  12
ATOM     12  C   LIG d   1      30.850 -11.579  64.546  0.00  0.00     0.041 C 
BRANCH  12  13
ATOM     13  C   LIG d   1      31.365 -12.155  65.852  0.00  0.00    -0.058 A 
ATOM     14  C   LIG d   1      30.621 -13.098  66.576  0.00  0.00     0.007 A 
ATOM     15  C   LIG d   1      31.129 -13.659  67.753  0.00  0.00     0.001 A 
ATOM     16  C   LIG d   1      32.378 -13.271  68.233  0.00  0.00     0.000 A 
ATOM     17  C   LIG d   1      33.109 -12.303  67.550  0.00  0.00     0.001 A 
ATOM     18  C   LIG d   1      32.606 -11.749  66.368  0.00  0.00     0.007 A 
ENDBRANCH  12  13
ENDBRANCH  11  12
ENDBRANCH   8  11
ENDBRANCH   7   8
ENDBRANCH   1   7
BRANCH   6  19
ATOM     19  N   LIG d   1      27.785 -10.999  67.971  0.00  0.00    -0.352 N 
ATOM     20  C   LIG d   1      27.143 -11.942  67.206  0.00  0.00     0.214 C 
ATOM     21  C   LIG d   1      26.078 -12.724  67.939  0.00  0.00     0.117 C 
ATOM     22  O   LIG d   1      27.430 -12.163  66.035  0.00  0.00    -0.274 OA
ATOM     23  H   LIG d   1      27.483 -10.873  68.900  0.00  0.00     0.163 HD
ENDBRANCH   6  19
BRANCH   3  24
ATOM     24  C   LIG d   1      27.673  -6.217  68.836  0.00  0.00     0.205 C 
ATOM     25  O   LIG d   1      26.401  -6.013  68.385  0.00  0.00    -0.644 OA
ATOM     26  O   LIG d   1      28.162  -5.519  69.694  0.00  0.00    -0.644 OA
ENDBRANCH   3  24
BRANCH   5  27
ATOM     27  N   LIG d   1      30.947  -9.987  68.994  0.00  0.00    -0.073 N 
ATOM     28  H   LIG d   1      31.267  -9.651  69.903  0.00  0.00     0.274 HD
ATOM     29  H   LIG d   1      31.573  -9.643  68.265  0.00  0.00     0.274 HD
ATOM     30  H   LIG d   1      30.948 -11.007  68.989  0.00  0.00     0.274 HD
ENDBRANCH   5  27
TORSDOF 9
ENDMDL
MODEL 19
REMARK VINA RESULT:      -4.2      2.857      5.213
REMARK  9 active torsions:
REMARK  status: ('A' for Active; 'I' for Inactive)
REMARK    1  A    between atoms: C_2  and  C_3 
REMARK    2  A    between atoms: C_3  and  C_4 
REMARK    3  A    between atoms: C_3  and  O_12 
REMARK    4  A    between atoms: C_4  and  C_5 
REMARK    5  A    between atoms: C_5  and  C_6 
REMARK    6  A    between atoms: C_13  and  O_12 
REMARK    7  A    between atoms: C_15  and  C_16 
REMARK    8  A    between atoms: C_20  and  N_21 
REMARK    9  A    between atoms: C_22  and  N_23 
REMARK       I    between atoms: N_23  and  C_24 
ROOT
ATOM      1  C   LIG d   1      29.106 -11.204  67.520  0.00  0.00     0.170 C 
ATOM      2  C   LIG d   1      29.594 -12.575  67.896  0.00  0.00     0.021 C 
ATOM      3  C   LIG d   1      30.680 -13.155  67.310  0.00  0.00     0.019 C 
ATOM      4  C   LIG d   1      31.459 -12.381  66.284  0.00  0.00     0.080 C 
ATOM      5  C   LIG d   1      30.551 -11.581  65.332  0.00  0.00     0.213 C 
ATOM      6  C   LIG d   1      29.236 -10.998  65.973  0.00  0.00     0.147 C 
ENDROOT
BRANCH   1   7
ATOM      7  O   LIG d   1      29.836 -10.308  68.373  0.00  0.00    -0.375 OA
BRANCH   7   8
ATOM      8  C   LIG d   1      29.146  -9.381  69.223  0.00  0.00     0.122 C 
BRANCH   8   9
ATOM      9  C   LIG d   1      29.812  -7.994  69.355  0.00  0.00     0.027 C 
ATOM     10  C   LIG d   1      31.307  -8.048  69.663  0.00  0.00     0.007 C 
ENDBRANCH   8   9
BRANCH   8  11
ATOM     11  C   LIG d   1      27.703  -9.197  68.666  0.00  0.00     0.036 C 
BRANCH  11  12
ATOM     12  C   LIG d   1      27.449  -7.812  68.056  0.00  0.00     0.041 C 
BRANCH  12  13
ATOM     13  C   LIG d   1      27.226  -7.850  66.555  0.00  0.00    -0.058 A 
ATOM     14  C   LIG d   1      25.938  -7.977  66.014  0.00  0.00     0.007 A 
ATOM     15  C   LIG d   1      25.741  -7.960  64.628  0.00  0.00     0.001 A 
ATOM     16  C   LIG d   1      26.827  -7.837  63.765  0.00  0.00     0.000 A 
ATOM     17  C   LIG d   1      28.115  -7.755  64.287  0.00  0.00     0.001 A 
ATOM     18  C   LIG d   1      28.313  -7.762  65.671  0.00  0.00     0.007 A 
ENDBRANCH  12  13
ENDBRANCH  11  12
ENDBRANCH   8  11
ENDBRANCH   7   8
ENDBRANCH   1   7
BRANCH   6  19
ATOM     19  N   LIG d   1      28.086 -11.611  65.249  0.00  0.00    -0.352 N 
ATOM     20  C   LIG d   1      27.820 -11.401  63.918  0.00  0.00     0.214 C 
ATOM     21  C   LIG d   1      26.642 -12.184  63.384  0.00  0.00     0.117 C 
ATOM     22  O   LIG d   1      28.499 -10.671  63.206  0.00  0.00    -0.274 OA
ATOM     23  H   LIG d   1      27.482 -12.202  65.754  0.00  0.00     0.163 HD
ENDBRANCH   6  19
BRANCH   3  24
ATOM     24  C   LIG d   1      31.149 -14.519  67.654  0.00  0.00     0.205 C 
ATOM     25  O   LIG d   1      31.834 -15.086  66.618  0.00  0.00    -0.644 OA
ATOM     26  O   LIG d   1      31.004 -15.094  68.708  0.00  0.00    -0.644 OA
ENDBRANCH   3  24
BRANCH   5  27
ATOM     27  N   LIG d   1      31.337 -10.566  64.606  0.00  0.00    -0.073 N 
ATOM     28  H   LIG d   1      30.846  -9.672  64.633  0.00  0.00     0.274 HD
ATOM     29  H   LIG d   1      31.457 -10.858  63.637  0.00  0.00     0.274 HD
ATOM     30  H   LIG d   1      32.251 -10.464  65.047  0.00  0.00     0.274 HD
ENDBRANCH   5  27
TORSDOF 9
ENDMDL
MODEL 20
REMARK VINA RESULT:      -3.7      2.337      5.133
REMARK  9 active torsions:
REMARK  status: ('A' for Active; 'I' for Inactive)
REMARK    1  A    between atoms: C_2  and  C_3 
REMARK    2  A    between atoms: C_3  and  C_4 
REMARK    3  A    between atoms: C_3  and  O_12 
REMARK    4  A    between atoms: C_4  and  C_5 
REMARK    5  A    between atoms: C_5  and  C_6 
REMARK    6  A    between atoms: C_13  and  O_12 
REMARK    7  A    between atoms: C_15  and  C_16 
REMARK    8  A    between atoms: C_20  and  N_21 
REMARK    9  A    between atoms: C_22  and  N_23 
REMARK       I    between atoms: N_23  and  C_24 
ROOT
ATOM      1  C   LIG d   1      29.632 -10.373  66.983  0.00  0.00     0.170 C 
ATOM      2  C   LIG d   1      29.127 -11.786  67.083  0.00  0.00     0.021 C 
ATOM      3  C   LIG d   1      29.962 -12.860  67.166  0.00  0.00     0.019 C 
ATOM      4  C   LIG d   1      31.447 -12.631  67.217  0.00  0.00     0.080 C 
ATOM      5  C   LIG d   1      31.906 -11.519  66.255  0.00  0.00     0.213 C 
ATOM      6  C   LIG d   1      30.899 -10.324  66.065  0.00  0.00     0.147 C 
ENDROOT
BRANCH   1   7
ATOM      7  O   LIG d   1      29.780  -9.940  68.344  0.00  0.00    -0.375 OA
BRANCH   7   8
ATOM      8  C   LIG d   1      28.812  -9.066  68.944  0.00  0.00     0.122 C 
BRANCH   8   9
ATOM      9  C   LIG d   1      29.019  -7.564  68.653  0.00  0.00     0.027 C 
ATOM     10  C   LIG d   1      28.393  -6.637  69.693  0.00  0.00     0.007 C 
ENDBRANCH   8   9
BRANCH   8  11
ATOM     11  C   LIG d   1      27.402  -9.490  68.440  0.00  0.00     0.036 C 
BRANCH  11  12
ATOM     12  C   LIG d   1      26.718  -8.433  67.561  0.00  0.00     0.041 C 
BRANCH  12  13
ATOM     13  C   LIG d   1      26.981  -8.626  66.078  0.00  0.00    -0.058 A 
ATOM     14  C   LIG d   1      26.822  -9.878  65.467  0.00  0.00     0.007 A 
ATOM     15  C   LIG d   1      27.019 -10.032  64.090  0.00  0.00     0.001 A 
ATOM     16  C   LIG d   1      27.396  -8.942  63.309  0.00  0.00     0.000 A 
ATOM     17  C   LIG d   1      27.602  -7.703  63.908  0.00  0.00     0.001 A 
ATOM     18  C   LIG d   1      27.396  -7.546  65.283  0.00  0.00     0.007 A 
ENDBRANCH  12  13
ENDBRANCH  11  12
ENDBRANCH   8  11
ENDBRANCH   7   8
ENDBRANCH   1   7
BRANCH   6  19
ATOM     19  N   LIG d   1      30.520 -10.296  64.623  0.00  0.00    -0.352 N 
ATOM     20  C   LIG d   1      31.141  -9.509  63.684  0.00  0.00     0.214 C 
ATOM     21  C   LIG d   1      30.634  -9.700  62.273  0.00  0.00     0.117 C 
ATOM     22  O   LIG d   1      32.057  -8.741  63.953  0.00  0.00    -0.274 OA
ATOM     23  H   LIG d   1      29.782 -10.875  64.327  0.00  0.00     0.163 HD
ENDBRANCH   6  19
BRANCH   3  24
ATOM     24  C   LIG d   1      29.473 -14.259  67.235  0.00  0.00     0.205 C 
ATOM     25  O   LIG d   1      30.319 -15.114  66.590  0.00  0.00    -0.644 OA
ATOM     26  O   LIG d   1      28.480 -14.655  67.801  0.00  0.00    -0.644 OA
ENDBRANCH   3  24
BRANCH   5  27
ATOM     27  N   LIG d   1      33.269 -11.075  66.600  0.00  0.00    -0.073 N 
ATOM     28  H   LIG d   1      33.387 -10.098  66.330  0.00  0.00     0.274 HD
ATOM     29  H   LIG d   1      33.950 -11.649  66.103  0.00  0.00     0.274 HD
ATOM     30  H   LIG d   1      33.414 -11.169  67.605  0.00  0.00     0.274 HD
ENDBRANCH   5  27
TORSDOF 9
ENDMDL
