REMARK  9 active torsions:
REMARK  status: ('A' for Active; 'I' for Inactive)
REMARK    1  A    between atoms: C_2  and  C_3 
REMARK    2  A    between atoms: C_3  and  C_4 
REMARK    3  A    between atoms: C_3  and  O_12 
REMARK    4  A    between atoms: C_4  and  C_5 
REMARK    5  A    between atoms: C_5  and  C_6 
REMARK    6  A    between atoms: C_13  and  O_12 
REMARK    7  A    between atoms: C_15  and  C_16 
REMARK    8  A    between atoms: C_20  and  N_21 
REMARK    9  A    between atoms: C_22  and  N_23 
REMARK       I    between atoms: N_23  and  C_24 
ROOT
ATOM      1  C   LIG d   1       4.176  -0.570   4.064  0.00  0.00     0.170 C 
ATOM      2  C   LIG d   1       3.655   0.836   3.953  0.00  0.00     0.021 C 
ATOM      3  C   LIG d   1       2.336   1.145   4.106  0.00  0.00     0.019 C 
ATOM      4  C   LIG d   1       1.364   0.053   4.453  0.00  0.00     0.080 C 
ATOM      5  C   LIG d   1       1.645  -1.254   3.688  0.00  0.00     0.213 C 
ATOM      6  C   LIG d   1       3.162  -1.567   3.408  0.00  0.00     0.147 C 
ENDROOT
BRANCH   1   7
ATOM      7  O   LIG d   1       4.470  -0.743   5.459  0.00  0.00    -0.375 OA
BRANCH   7   8
ATOM      8  C   LIG d   1       5.062  -1.959   5.938  0.00  0.00     0.122 C 
BRANCH   8   9
ATOM      9  C   LIG d   1       6.390  -2.353   5.255  0.00  0.00     0.027 C 
ATOM     10  C   LIG d   1       7.528  -1.362   5.489  0.00  0.00     0.007 C 
ENDBRANCH   8   9
BRANCH   8  11
ATOM     11  C   LIG d   1       5.307  -1.806   7.468  0.00  0.00     0.036 C 
BRANCH  11  12
ATOM     12  C   LIG d   1       4.048  -1.425   8.259  0.00  0.00     0.041 C 
BRANCH  12  13
ATOM     13  C   LIG d   1       4.311  -1.215   9.739  0.00  0.00    -0.058 A 
ATOM     14  C   LIG d   1       4.760  -2.264  10.555  0.00  0.00     0.007 A 
ATOM     15  C   LIG d   1       5.047  -2.045  11.907  0.00  0.00     0.001 A 
ATOM     16  C   LIG d   1       4.870  -0.782  12.467  0.00  0.00     0.000 A 
ATOM     17  C   LIG d   1       4.382   0.258  11.681  0.00  0.00     0.001 A 
ATOM     18  C   LIG d   1       4.104   0.043  10.327  0.00  0.00     0.007 A 
ENDBRANCH  12  13
ENDBRANCH  11  12
ENDBRANCH   8  11
ENDBRANCH   7   8
ENDBRANCH   1   7
BRANCH   6  19
ATOM     19  N   LIG d   1       3.334  -1.615   1.928  0.00  0.00    -0.352 N 
ATOM     20  C   LIG d   1       4.216  -2.450   1.287  0.00  0.00     0.214 C 
ATOM     21  C   LIG d   1       4.166  -2.374  -0.222  0.00  0.00     0.117 C 
ATOM     22  O   LIG d   1       4.959  -3.223   1.880  0.00  0.00    -0.274 OA
ATOM     23  H   LIG d   1       2.783  -1.013   1.378  0.00  0.00     0.163 HD
ENDBRANCH   6  19
BRANCH   3  24
ATOM     24  C   LIG d   1       1.810   2.525   3.968  0.00  0.00     0.205 C 
ATOM     25  O   LIG d   1       2.806   3.409   3.667  0.00  0.00    -0.644 OA
ATOM     26  O   LIG d   1       0.657   2.877   4.065  0.00  0.00    -0.644 OA
ENDBRANCH   3  24
BRANCH   5  27
ATOM     27  N   LIG d   1       0.931  -2.380   4.318  0.00  0.00    -0.073 N 
ATOM     28  H   LIG d   1       1.298  -2.532   5.258  0.00  0.00     0.274 HD
ATOM     29  H   LIG d   1       1.066  -3.223   3.760  0.00  0.00     0.274 HD
ATOM     30  H   LIG d   1      -0.064  -2.164   4.373  0.00  0.00     0.274 HD
ENDBRANCH   5  27
TORSDOF 9
