@<TRIPOS>MOLECULE
1b9t_water
336 224 112
SMALL
GASTEIGER


@<TRIPOS>ATOM
      1 O          26.2180  -22.5040   64.1100 O.3     395 HOH502      0.0000
      2 H1         25.2680  -22.5040   64.1100 H       395 HOH502      0.0000
      3 H2         26.4631  -21.5862   64.1100 H       395 HOH502      0.0000
      4 O          23.5850  -20.7170   63.8950 O.3     396 HOH503      0.0000
      5 H1         22.6350  -20.7170   63.8950 H       396 HOH503      0.0000
      6 H2         23.8301  -19.7992   63.8950 H       396 HOH503      0.0000
      7 O          46.3500  -14.5220   34.5410 O.3     397 HOH579      0.0000
      8 H1         45.4000  -14.5220   34.5410 H       397 HOH579      0.0000
      9 H2         46.5951  -13.6042   34.5410 H       397 HOH579      0.0000
     10 O          45.9840  -29.0930   39.8430 O.3     398 HOH586      0.0000
     11 H1         45.0340  -29.0930   39.8430 H       398 HOH586      0.0000
     12 H2         46.2291  -28.1752   39.8430 H       398 HOH586      0.0000
     13 O          52.1440  -27.5730   39.3080 O.3     399 HOH588      0.0000
     14 H1         51.1940  -27.5730   39.3080 H       399 HOH588      0.0000
     15 H2         52.3891  -26.6552   39.3080 H       399 HOH588      0.0000
     16 O          53.4890  -32.7870   50.5490 O.3     400 HOH593      0.0000
     17 H1         52.5390  -32.7870   50.5490 H       400 HOH593      0.0000
     18 H2         53.7341  -31.8692   50.5490 H       400 HOH593      0.0000
     19 O          57.3610  -26.0860   62.1220 O.3     401 HOH594      0.0000
     20 H1         56.4110  -26.0860   62.1220 H       401 HOH594      0.0000
     21 H2         57.6061  -25.1682   62.1220 H       401 HOH594      0.0000
     22 O          54.1110   -2.4500   55.2730 O.3     402 HOH595      0.0000
     23 H1         53.1610   -2.4500   55.2730 H       402 HOH595      0.0000
     24 H2         54.3561   -1.5322   55.2730 H       402 HOH595      0.0000
     25 O          54.7600  -12.5820   74.7910 O.3     403 HOH601      0.0000
     26 H1         53.8100  -12.5820   74.7910 H       403 HOH601      0.0000
     27 H2         55.0051  -11.6642   74.7910 H       403 HOH601      0.0000
     28 O          60.9610  -12.5240   71.9550 O.3     404 HOH602      0.0000
     29 H1         60.0110  -12.5240   71.9550 H       404 HOH602      0.0000
     30 H2         61.2061  -11.6062   71.9550 H       404 HOH602      0.0000
     31 O          58.3130   -6.1900   73.6180 O.3     405 HOH603      0.0000
     32 H1         57.3630   -6.1900   73.6180 H       405 HOH603      0.0000
     33 H2         58.5581   -5.2722   73.6180 H       405 HOH603      0.0000
     34 O          53.3450   -7.6660   77.5840 O.3     406 HOH604      0.0000
     35 H1         52.3950   -7.6660   77.5840 H       406 HOH604      0.0000
     36 H2         53.5901   -6.7482   77.5840 H       406 HOH604      0.0000
     37 O          61.2070   -9.4790   72.5030 O.3     407 HOH605      0.0000
     38 H1         60.2570   -9.4790   72.5030 H       407 HOH605      0.0000
     39 H2         61.4521   -8.5612   72.5030 H       407 HOH605      0.0000
     40 O          60.8460   -4.2770   67.3300 O.3     408 HOH609      0.0000
     41 H1         59.8960   -4.2770   67.3300 H       408 HOH609      0.0000
     42 H2         61.0911   -3.3592   67.3300 H       408 HOH609      0.0000
     43 O          61.3360   -7.5400   71.7420 O.3     409 HOH610      0.0000
     44 H1         60.3860   -7.5400   71.7420 H       409 HOH610      0.0000
     45 H2         61.5811   -6.6222   71.7420 H       409 HOH610      0.0000
     46 O          58.5470   -3.0440   66.9000 O.3     410 HOH611      0.0000
     47 H1         57.5970   -3.0440   66.9000 H       410 HOH611      0.0000
     48 H2         58.7921   -2.1262   66.9000 H       410 HOH611      0.0000
     49 O          50.3680   -8.4480   65.3200 O.3     411 HOH613      0.0000
     50 H1         49.4180   -8.4480   65.3200 H       411 HOH613      0.0000
     51 H2         50.6131   -7.5302   65.3200 H       411 HOH613      0.0000
     52 O          39.4560  -13.1980   59.4230 O.3     412 HOH618      0.0000
     53 H1         38.5060  -13.1980   59.4230 H       412 HOH618      0.0000
     54 H2         39.7011  -12.2802   59.4230 H       412 HOH618      0.0000
     55 O          41.8260  -14.1550   51.8710 O.3     413 HOH620      0.0000
     56 H1         40.8760  -14.1550   51.8710 H       413 HOH620      0.0000
     57 H2         42.0711  -13.2372   51.8710 H       413 HOH620      0.0000
     58 O          44.4990  -14.3090   47.1460 O.3     414 HOH621      0.0000
     59 H1         43.5490  -14.3090   47.1460 H       414 HOH621      0.0000
     60 H2         44.7441  -13.3912   47.1460 H       414 HOH621      0.0000
     61 O          44.2220  -10.7010   45.0380 O.3     415 HOH622      0.0000
     62 H1         43.2720  -10.7010   45.0380 H       415 HOH622      0.0000
     63 H2         44.4671   -9.7832   45.0380 H       415 HOH622      0.0000
     64 O          51.3100  -13.6880   45.3100 O.3     416 HOH623      0.0000
     65 H1         50.3600  -13.6880   45.3100 H       416 HOH623      0.0000
     66 H2         51.5551  -12.7702   45.3100 H       416 HOH623      0.0000
     67 O          53.2330  -11.1810   57.0870 O.3     417 HOH629      0.0000
     68 H1         52.2830  -11.1810   57.0870 H       417 HOH629      0.0000
     69 H2         53.4781  -10.2632   57.0870 H       417 HOH629      0.0000
     70 O          48.1680   -0.4280   74.2880 O.3     418 HOH637      0.0000
     71 H1         47.2180   -0.4280   74.2880 H       418 HOH637      0.0000
     72 H2         48.4131    0.4898   74.2880 H       418 HOH637      0.0000
     73 O          55.4660   -1.5140   71.9020 O.3     419 HOH638      0.0000
     74 H1         54.5160   -1.5140   71.9020 H       419 HOH638      0.0000
     75 H2         55.7111   -0.5962   71.9020 H       419 HOH638      0.0000
     76 O          41.8360    1.5840   75.9120 O.3     420 HOH640      0.0000
     77 H1         40.8860    1.5840   75.9120 H       420 HOH640      0.0000
     78 H2         42.0811    2.5018   75.9120 H       420 HOH640      0.0000
     79 O          41.1250    3.1970   74.2540 O.3     421 HOH641      0.0000
     80 H1         40.1750    3.1970   74.2540 H       421 HOH641      0.0000
     81 H2         41.3701    4.1148   74.2540 H       421 HOH641      0.0000
     82 O          41.2430    0.5670   72.8600 O.3     422 HOH642      0.0000
     83 H1         40.2930    0.5670   72.8600 H       422 HOH642      0.0000
     84 H2         41.4881    1.4848   72.8600 H       422 HOH642      0.0000
     85 O          51.4950   -5.8670   78.8800 O.3     423 HOH643      0.0000
     86 H1         50.5450   -5.8670   78.8800 H       423 HOH643      0.0000
     87 H2         51.7401   -4.9492   78.8800 H       423 HOH643      0.0000
     88 O          38.9040   -7.3900   68.1790 O.3     424 HOH646      0.0000
     89 H1         37.9540   -7.3900   68.1790 H       424 HOH646      0.0000
     90 H2         39.1491   -6.4722   68.1790 H       424 HOH646      0.0000
     91 O          37.5260   -8.4760   66.4280 O.3     425 HOH649      0.0000
     92 H1         36.5760   -8.4760   66.4280 H       425 HOH649      0.0000
     93 H2         37.7711   -7.5582   66.4280 H       425 HOH649      0.0000
     94 O          36.6030    2.3370   62.1760 O.3     426 HOH650      0.0000
     95 H1         35.6530    2.3370   62.1760 H       426 HOH650      0.0000
     96 H2         36.8481    3.2548   62.1760 H       426 HOH650      0.0000
     97 O          40.9290    0.3310   69.6130 O.3     427 HOH651      0.0000
     98 H1         39.9790    0.3310   69.6130 H       427 HOH651      0.0000
     99 H2         41.1741    1.2488   69.6130 H       427 HOH651      0.0000
    100 O          38.9620    8.2180   65.4040 O.3     428 HOH652      0.0000
    101 H1         38.0120    8.2180   65.4040 H       428 HOH652      0.0000
    102 H2         39.2071    9.1358   65.4040 H       428 HOH652      0.0000
    103 O          53.5350    2.7420   60.5120 O.3     429 HOH667      0.0000
    104 H1         52.5850    2.7420   60.5120 H       429 HOH667      0.0000
    105 H2         53.7801    3.6598   60.5120 H       429 HOH667      0.0000
    106 O          62.0080    4.8150   65.6080 O.3     430 HOH668      0.0000
    107 H1         61.0580    4.8150   65.6080 H       430 HOH668      0.0000
    108 H2         62.2531    5.7328   65.6080 H       430 HOH668      0.0000
    109 O          46.7280    5.3200   53.6040 O.3     431 HOH672      0.0000
    110 H1         45.7780    5.3200   53.6040 H       431 HOH672      0.0000
    111 H2         46.9731    6.2378   53.6040 H       431 HOH672      0.0000
    112 O          46.8930    2.2680   49.4510 O.3     432 HOH673      0.0000
    113 H1         45.9430    2.2680   49.4510 H       432 HOH673      0.0000
    114 H2         47.1381    3.1858   49.4510 H       432 HOH673      0.0000
    115 O          42.2090   -4.3050   43.2510 O.3     433 HOH682      0.0000
    116 H1         41.2590   -4.3050   43.2510 H       433 HOH682      0.0000
    117 H2         42.4541   -3.3872   43.2510 H       433 HOH682      0.0000
    118 O          41.9800  -11.5030   42.6730 O.3     434 HOH683      0.0000
    119 H1         41.0300  -11.5030   42.6730 H       434 HOH683      0.0000
    120 H2         42.2251  -10.5852   42.6730 H       434 HOH683      0.0000
    121 O          41.4610   -8.8100   37.2330 O.3     435 HOH684      0.0000
    122 H1         40.5110   -8.8100   37.2330 H       435 HOH684      0.0000
    123 H2         41.7061   -7.8922   37.2330 H       435 HOH684      0.0000
    124 O          31.5740    6.5850   57.4450 O.3     436 HOH694      0.0000
    125 H1         30.6240    6.5850   57.4450 H       436 HOH694      0.0000
    126 H2         31.8191    7.5028   57.4450 H       436 HOH694      0.0000
    127 O          30.1190    1.1550   65.8240 O.3     437 HOH697      0.0000
    128 H1         29.1690    1.1550   65.8240 H       437 HOH697      0.0000
    129 H2         30.3641    2.0728   65.8240 H       437 HOH697      0.0000
    130 O          24.1910    3.1010   65.7390 O.3     438 HOH698      0.0000
    131 H1         23.2410    3.1010   65.7390 H       438 HOH698      0.0000
    132 H2         24.4361    4.0188   65.7390 H       438 HOH698      0.0000
    133 O          25.0730    4.4350   55.5680 O.3     439 HOH700      0.0000
    134 H1         24.1230    4.4350   55.5680 H       439 HOH700      0.0000
    135 H2         25.3181    5.3528   55.5680 H       439 HOH700      0.0000
    136 O          43.9280    4.9650   41.7260 O.3     440 HOH706      0.0000
    137 H1         42.9780    4.9650   41.7260 H       440 HOH706      0.0000
    138 H2         44.1731    5.8828   41.7260 H       440 HOH706      0.0000
    139 O          45.3380    7.4950   50.7840 O.3     441 HOH707      0.0000
    140 H1         44.3880    7.4950   50.7840 H       441 HOH707      0.0000
    141 H2         45.5831    8.4128   50.7840 H       441 HOH707      0.0000
    142 O          47.5400    2.9040   52.3060 O.3     442 HOH708      0.0000
    143 H1         46.5900    2.9040   52.3060 H       442 HOH708      0.0000
    144 H2         47.7851    3.8218   52.3060 H       442 HOH708      0.0000
    145 O          35.9360   10.1900   45.1180 O.3     443 HOH709      0.0000
    146 H1         34.9860   10.1900   45.1180 H       443 HOH709      0.0000
    147 H2         36.1811   11.1078   45.1180 H       443 HOH709      0.0000
    148 O          45.0870    7.8920   53.6450 O.3     444 HOH710      0.0000
    149 H1         44.1370    7.8920   53.6450 H       444 HOH710      0.0000
    150 H2         45.3321    8.8098   53.6450 H       444 HOH710      0.0000
    151 O          27.6160    6.6840   48.2320 O.3     445 HOH713      0.0000
    152 H1         26.6660    6.6840   48.2320 H       445 HOH713      0.0000
    153 H2         27.8611    7.6018   48.2320 H       445 HOH713      0.0000
    154 O          25.5230    8.6740   54.1560 O.3     446 HOH715      0.0000
    155 H1         24.5730    8.6740   54.1560 H       446 HOH715      0.0000
    156 H2         25.7681    9.5918   54.1560 H       446 HOH715      0.0000
    157 O          24.3930   -0.0300   58.7820 O.3     447 HOH716      0.0000
    158 H1         23.4430   -0.0300   58.7820 H       447 HOH716      0.0000
    159 H2         24.6381    0.8878   58.7820 H       447 HOH716      0.0000
    160 O          29.8380  -10.5350   55.8340 O.3     448 HOH724      0.0000
    161 H1         28.8880  -10.5350   55.8340 H       448 HOH724      0.0000
    162 H2         30.0831   -9.6172   55.8340 H       448 HOH724      0.0000
    163 O          39.7890   -8.2130   57.7890 O.3     449 HOH726      0.0000
    164 H1         38.8390   -8.2130   57.7890 H       449 HOH726      0.0000
    165 H2         40.0341   -7.2952   57.7890 H       449 HOH726      0.0000
    166 O          37.3840  -14.1170   50.3390 O.3     450 HOH727      0.0000
    167 H1         36.4340  -14.1170   50.3390 H       450 HOH727      0.0000
    168 H2         37.6291  -13.1992   50.3390 H       450 HOH727      0.0000
    169 O          42.0080  -12.2620   45.2930 O.3     451 HOH729      0.0000
    170 H1         41.0580  -12.2620   45.2930 H       451 HOH729      0.0000
    171 H2         42.2531  -11.3442   45.2930 H       451 HOH729      0.0000
    172 O          40.5250  -15.9650   46.6830 O.3     452 HOH730      0.0000
    173 H1         39.5750  -15.9650   46.6830 H       452 HOH730      0.0000
    174 H2         40.7701  -15.0472   46.6830 H       452 HOH730      0.0000
    175 O          32.3880   -4.8000   33.6300 O.3     453 HOH735      0.0000
    176 H1         31.4380   -4.8000   33.6300 H       453 HOH735      0.0000
    177 H2         32.6331   -3.8822   33.6300 H       453 HOH735      0.0000
    178 O          40.2220    4.8030   38.5470 O.3     454 HOH736      0.0000
    179 H1         39.2720    4.8030   38.5470 H       454 HOH736      0.0000
    180 H2         40.4671    5.7208   38.5470 H       454 HOH736      0.0000
    181 O          34.7480  -12.3650   46.5270 O.3     455 HOH737      0.0000
    182 H1         33.7980  -12.3650   46.5270 H       455 HOH737      0.0000
    183 H2         34.9931  -11.4472   46.5270 H       455 HOH737      0.0000
    184 O          17.3320   -6.1320   53.2020 O.3     456 HOH741      0.0000
    185 H1         16.3820   -6.1320   53.2020 H       456 HOH741      0.0000
    186 H2         17.5771   -5.2142   53.2020 H       456 HOH741      0.0000
    187 O          18.6900   -7.3540   55.3400 O.3     457 HOH742      0.0000
    188 H1         17.7400   -7.3540   55.3400 H       457 HOH742      0.0000
    189 H2         18.9351   -6.4362   55.3400 H       457 HOH742      0.0000
    190 O          28.9910   -4.5020   33.8460 O.3     458 HOH755      0.0000
    191 H1         28.0410   -4.5020   33.8460 H       458 HOH755      0.0000
    192 H2         29.2361   -3.5842   33.8460 H       458 HOH755      0.0000
    193 O          35.7220    2.1940   37.2000 O.3     459 HOH757      0.0000
    194 H1         34.7720    2.1940   37.2000 H       459 HOH757      0.0000
    195 H2         35.9671    3.1118   37.2000 H       459 HOH757      0.0000
    196 O          38.4440   -2.3480   41.7850 O.3     460 HOH758      0.0000
    197 H1         37.4940   -2.3480   41.7850 H       460 HOH758      0.0000
    198 H2         38.6891   -1.4302   41.7850 H       460 HOH758      0.0000
    199 O          20.9250  -12.3800   49.4570 O.3     461 HOH767      0.0000
    200 H1         19.9750  -12.3800   49.4570 H       461 HOH767      0.0000
    201 H2         21.1701  -11.4622   49.4570 H       461 HOH767      0.0000
    202 O          21.2160  -18.1720   53.6150 O.3     462 HOH770      0.0000
    203 H1         20.2660  -18.1720   53.6150 H       462 HOH770      0.0000
    204 H2         21.4611  -17.2542   53.6150 H       462 HOH770      0.0000
    205 O          21.5380  -13.7730   51.7790 O.3     463 HOH774      0.0000
    206 H1         20.5880  -13.7730   51.7790 H       463 HOH774      0.0000
    207 H2         21.7831  -12.8552   51.7790 H       463 HOH774      0.0000
    208 O          39.1360  -16.2110   49.6940 O.3     464 HOH779      0.0000
    209 H1         38.1860  -16.2110   49.6940 H       464 HOH779      0.0000
    210 H2         39.3811  -15.2932   49.6940 H       464 HOH779      0.0000
    211 O          42.9090  -15.2770   43.7300 O.3     465 HOH780      0.0000
    212 H1         41.9590  -15.2770   43.7300 H       465 HOH780      0.0000
    213 H2         43.1541  -14.3592   43.7300 H       465 HOH780      0.0000
    214 O          40.0160  -17.9960   44.0510 O.3     466 HOH781      0.0000
    215 H1         39.0660  -17.9960   44.0510 H       466 HOH781      0.0000
    216 H2         40.2611  -17.0782   44.0510 H       466 HOH781      0.0000
    217 O          26.7530  -21.3300   58.9750 O.3     467 HOH793      0.0000
    218 H1         25.8030  -21.3300   58.9750 H       467 HOH793      0.0000
    219 H2         26.9981  -20.4122   58.9750 H       467 HOH793      0.0000
    220 O          21.6900  -26.6360   62.9130 O.3     468 HOH798      0.0000
    221 H1         20.7400  -26.6360   62.9130 H       468 HOH798      0.0000
    222 H2         21.9351  -25.7182   62.9130 H       468 HOH798      0.0000
    223 O          28.3020  -27.0730   56.0290 O.3     469 HOH800      0.0000
    224 H1         27.3520  -27.0730   56.0290 H       469 HOH800      0.0000
    225 H2         28.5471  -26.1552   56.0290 H       469 HOH800      0.0000
    226 O          18.5910  -24.2480   50.9700 O.3     470 HOH816      0.0000
    227 H1         17.6410  -24.2480   50.9700 H       470 HOH816      0.0000
    228 H2         18.8361  -23.3302   50.9700 H       470 HOH816      0.0000
    229 O          26.4340  -28.7070   55.7200 O.3     471 HOH817      0.0000
    230 H1         25.4840  -28.7070   55.7200 H       471 HOH817      0.0000
    231 H2         26.6791  -27.7892   55.7200 H       471 HOH817      0.0000
    232 O          34.3380  -24.1340   62.3760 O.3     472 HOH825      0.0000
    233 H1         33.3880  -24.1340   62.3760 H       472 HOH825      0.0000
    234 H2         34.5831  -23.2162   62.3760 H       472 HOH825      0.0000
    235 O          30.3460  -31.9430   64.3560 O.3     473 HOH828      0.0000
    236 H1         29.3960  -31.9430   64.3560 H       473 HOH828      0.0000
    237 H2         30.5911  -31.0252   64.3560 H       473 HOH828      0.0000
    238 O          31.9150  -36.0570   58.1000 O.3     474 HOH830      0.0000
    239 H1         30.9650  -36.0570   58.1000 H       474 HOH830      0.0000
    240 H2         32.1601  -35.1392   58.1000 H       474 HOH830      0.0000
    241 O          32.6240  -17.9700   56.4720 O.3     475 HOH850      0.0000
    242 H1         31.6740  -17.9700   56.4720 H       475 HOH850      0.0000
    243 H2         32.8691  -17.0522   56.4720 H       475 HOH850      0.0000
    244 O          39.2940  -18.9310   48.3650 O.3     476 HOH852      0.0000
    245 H1         38.3440  -18.9310   48.3650 H       476 HOH852      0.0000
    246 H2         39.5391  -18.0132   48.3650 H       476 HOH852      0.0000
    247 O          44.1290  -23.0230   43.8910 O.3     477 HOH854      0.0000
    248 H1         43.1790  -23.0230   43.8910 H       477 HOH854      0.0000
    249 H2         44.3741  -22.1052   43.8910 H       477 HOH854      0.0000
    250 O          32.1380  -30.0020   48.4530 O.3     478 HOH865      0.0000
    251 H1         31.1880  -30.0020   48.4530 H       478 HOH865      0.0000
    252 H2         32.3831  -29.0842   48.4530 H       478 HOH865      0.0000
    253 O          34.9370  -23.7580   56.7450 O.3     479 HOH866      0.0000
    254 H1         33.9870  -23.7580   56.7450 H       479 HOH866      0.0000
    255 H2         35.1821  -22.8402   56.7450 H       479 HOH866      0.0000
    256 O          33.6620  -30.5690   45.7060 O.3     480 HOH884      0.0000
    257 H1         32.7120  -30.5690   45.7060 H       480 HOH884      0.0000
    258 H2         33.9071  -29.6512   45.7060 H       480 HOH884      0.0000
    259 O          28.2930  -30.1110   51.1750 O.3     481 HOH887      0.0000
    260 H1         27.3430  -30.1110   51.1750 H       481 HOH887      0.0000
    261 H2         28.5381  -29.1932   51.1750 H       481 HOH887      0.0000
    262 O          30.0460  -32.0000   46.8250 O.3     482 HOH890      0.0000
    263 H1         29.0960  -32.0000   46.8250 H       482 HOH890      0.0000
    264 H2         30.2911  -31.0822   46.8250 H       482 HOH890      0.0000
    265 O          30.0910  -31.1590   49.4610 O.3     483 HOH891      0.0000
    266 H1         29.1410  -31.1590   49.4610 H       483 HOH891      0.0000
    267 H2         30.3361  -30.2412   49.4610 H       483 HOH891      0.0000
    268 O          29.1900  -33.1600   50.4350 O.3     484 HOH892      0.0000
    269 H1         28.2400  -33.1600   50.4350 H       484 HOH892      0.0000
    270 H2         29.4351  -32.2422   50.4350 H       484 HOH892      0.0000
    271 O          46.6010  -35.9010   53.6660 O.3     485 HOH896      0.0000
    272 H1         45.6510  -35.9010   53.6660 H       485 HOH896      0.0000
    273 H2         46.8461  -34.9832   53.6660 H       485 HOH896      0.0000
    274 O          44.8130  -32.9420   68.6730 O.3     486 HOH903      0.0000
    275 H1         43.8630  -32.9420   68.6730 H       486 HOH903      0.0000
    276 H2         45.0581  -32.0242   68.6730 H       486 HOH903      0.0000
    277 O          48.5050  -20.1460   72.2570 O.3     487 HOH905      0.0000
    278 H1         47.5550  -20.1460   72.2570 H       487 HOH905      0.0000
    279 H2         48.7501  -19.2282   72.2570 H       487 HOH905      0.0000
    280 O          36.9680  -21.3730   61.1340 O.3     488 HOH910      0.0000
    281 H1         36.0180  -21.3730   61.1340 H       488 HOH910      0.0000
    282 H2         37.2131  -20.4552   61.1340 H       488 HOH910      0.0000
    283 O          39.5610  -20.8230   45.7140 O.3     489 HOH914      0.0000
    284 H1         38.6110  -20.8230   45.7140 H       489 HOH914      0.0000
    285 H2         39.8061  -19.9052   45.7140 H       489 HOH914      0.0000
    286 O          54.3660  -22.2340   37.5660 O.3     490 HOH917      0.0000
    287 H1         53.4160  -22.2340   37.5660 H       490 HOH917      0.0000
    288 H2         54.6111  -21.3162   37.5660 H       490 HOH917      0.0000
    289 O          43.1840  -17.9690   41.7100 O.3     491 HOH921      0.0000
    290 H1         42.2340  -17.9690   41.7100 H       491 HOH921      0.0000
    291 H2         43.4291  -17.0512   41.7100 H       491 HOH921      0.0000
    292 O          51.1450  -13.9330   68.8280 O.3     492 HOH930      0.0000
    293 H1         50.1950  -13.9330   68.8280 H       492 HOH930      0.0000
    294 H2         51.3901  -13.0152   68.8280 H       492 HOH930      0.0000
    295 O          47.3310  -17.9100   72.6810 O.3     493 HOH931      0.0000
    296 H1         46.3810  -17.9100   72.6810 H       493 HOH931      0.0000
    297 H2         47.5761  -16.9922   72.6810 H       493 HOH931      0.0000
    298 O          41.4080  -10.9820   75.2300 O.3     494 HOH934      0.0000
    299 H1         40.4580  -10.9820   75.2300 H       494 HOH934      0.0000
    300 H2         41.6531  -10.0642   75.2300 H       494 HOH934      0.0000
    301 O          37.6230   -5.3040   76.1120 O.3     495 HOH935      0.0000
    302 H1         36.6730   -5.3040   76.1120 H       495 HOH935      0.0000
    303 H2         37.8681   -4.3862   76.1120 H       495 HOH935      0.0000
    304 O          48.5180  -12.2530   62.5980 O.3     496 HOH943      0.0000
    305 H1         47.5680  -12.2530   62.5980 H       496 HOH943      0.0000
    306 H2         48.7631  -11.3352   62.5980 H       496 HOH943      0.0000
    307 O          56.1740  -33.5460   67.1810 O.3     497 HOH955      0.0000
    308 H1         55.2240  -33.5460   67.1810 H       497 HOH955      0.0000
    309 H2         56.4191  -32.6282   67.1810 H       497 HOH955      0.0000
    310 O          52.7370  -29.7560   58.1830 O.3     498 HOH956      0.0000
    311 H1         51.7870  -29.7560   58.1830 H       498 HOH956      0.0000
    312 H2         52.9821  -28.8382   58.1830 H       498 HOH956      0.0000
    313 O          48.7200  -27.1560   68.0120 O.3     499 HOH957      0.0000
    314 H1         47.7700  -27.1560   68.0120 H       499 HOH957      0.0000
    315 H2         48.9651  -26.2382   68.0120 H       499 HOH957      0.0000
    316 O          51.2770  -21.8410   71.6560 O.3     500 HOH961      0.0000
    317 H1         50.3270  -21.8410   71.6560 H       500 HOH961      0.0000
    318 H2         51.5221  -20.9232   71.6560 H       500 HOH961      0.0000
    319 O          52.9490  -11.9460   76.0380 O.3     501 HOH963      0.0000
    320 H1         51.9990  -11.9460   76.0380 H       501 HOH963      0.0000
    321 H2         53.1941  -11.0282   76.0380 H       501 HOH963      0.0000
    322 O          58.5740  -10.1090   80.3580 O.3     502 HOH966      0.0000
    323 H1         57.6240  -10.1090   80.3580 H       502 HOH966      0.0000
    324 H2         58.8191   -9.1912   80.3580 H       502 HOH966      0.0000
    325 O          31.3370  -34.0270   72.0090 O.3     503 HOH967      0.0000
    326 H1         30.3870  -34.0270   72.0090 H       503 HOH967      0.0000
    327 H2         31.5821  -33.1092   72.0090 H       503 HOH967      0.0000
    328 O          51.5440   -7.1360   43.5460 O.3     504 HOH968      0.0000
    329 H1         50.5940   -7.1360   43.5460 H       504 HOH968      0.0000
    330 H2         51.7891   -6.2182   43.5460 H       504 HOH968      0.0000
    331 O          20.3530  -30.3630   65.5150 O.3     505 HOH969      0.0000
    332 H1         19.4030  -30.3630   65.5150 H       505 HOH969      0.0000
    333 H2         20.5981  -29.4452   65.5150 H       505 HOH969      0.0000
    334 O          31.7050  -20.7290   69.6980 O.3     506 HOH970      0.0000
    335 H1         30.7550  -20.7290   69.6980 H       506 HOH970      0.0000
    336 H2         31.9501  -19.8112   69.6980 H       506 HOH970      0.0000
@<TRIPOS>BOND
     1    1    2 1
     2    1    3 1
     3    4    5 1
     4    4    6 1
     5    7    8 1
     6    7    9 1
     7   10   11 1
     8   10   12 1
     9   13   14 1
    10   13   15 1
    11   16   17 1
    12   16   18 1
    13   19   20 1
    14   19   21 1
    15   22   23 1
    16   22   24 1
    17   25   26 1
    18   25   27 1
    19   28   29 1
    20   28   30 1
    21   31   32 1
    22   31   33 1
    23   34   35 1
    24   34   36 1
    25   37   38 1
    26   37   39 1
    27   40   41 1
    28   40   42 1
    29   43   44 1
    30   43   45 1
    31   46   47 1
    32   46   48 1
    33   49   50 1
    34   49   51 1
    35   52   53 1
    36   52   54 1
    37   55   56 1
    38   55   57 1
    39   58   59 1
    40   58   60 1
    41   61   62 1
    42   61   63 1
    43   64   65 1
    44   64   66 1
    45   67   68 1
    46   67   69 1
    47   70   71 1
    48   70   72 1
    49   73   74 1
    50   73   75 1
    51   76   77 1
    52   76   78 1
    53   79   80 1
    54   79   81 1
    55   82   83 1
    56   82   84 1
    57   85   86 1
    58   85   87 1
    59   88   89 1
    60   88   90 1
    61   91   92 1
    62   91   93 1
    63   94   95 1
    64   94   96 1
    65   97   98 1
    66   97   99 1
    67  100  101 1
    68  100  102 1
    69  103  104 1
    70  103  105 1
    71  106  107 1
    72  106  108 1
    73  109  110 1
    74  109  111 1
    75  112  113 1
    76  112  114 1
    77  115  116 1
    78  115  117 1
    79  118  119 1
    80  118  120 1
    81  121  122 1
    82  121  123 1
    83  124  125 1
    84  124  126 1
    85  127  128 1
    86  127  129 1
    87  130  131 1
    88  130  132 1
    89  133  134 1
    90  133  135 1
    91  136  137 1
    92  136  138 1
    93  139  140 1
    94  139  141 1
    95  142  143 1
    96  142  144 1
    97  145  146 1
    98  145  147 1
    99  148  149 1
   100  148  150 1
   101  151  152 1
   102  151  153 1
   103  154  155 1
   104  154  156 1
   105  157  158 1
   106  157  159 1
   107  160  161 1
   108  160  162 1
   109  163  164 1
   110  163  165 1
   111  166  167 1
   112  166  168 1
   113  169  170 1
   114  169  171 1
   115  172  173 1
   116  172  174 1
   117  175  176 1
   118  175  177 1
   119  178  179 1
   120  178  180 1
   121  181  182 1
   122  181  183 1
   123  184  185 1
   124  184  186 1
   125  187  188 1
   126  187  189 1
   127  190  191 1
   128  190  192 1
   129  193  194 1
   130  193  195 1
   131  196  197 1
   132  196  198 1
   133  199  200 1
   134  199  201 1
   135  202  203 1
   136  202  204 1
   137  205  206 1
   138  205  207 1
   139  208  209 1
   140  208  210 1
   141  211  212 1
   142  211  213 1
   143  214  215 1
   144  214  216 1
   145  217  218 1
   146  217  219 1
   147  220  221 1
   148  220  222 1
   149  223  224 1
   150  223  225 1
   151  226  227 1
   152  226  228 1
   153  229  230 1
   154  229  231 1
   155  232  233 1
   156  232  234 1
   157  235  236 1
   158  235  237 1
   159  238  239 1
   160  238  240 1
   161  241  242 1
   162  241  243 1
   163  244  245 1
   164  244  246 1
   165  247  248 1
   166  247  249 1
   167  250  251 1
   168  250  252 1
   169  253  254 1
   170  253  255 1
   171  256  257 1
   172  256  258 1
   173  259  260 1
   174  259  261 1
   175  262  263 1
   176  262  264 1
   177  265  266 1
   178  265  267 1
   179  268  269 1
   180  268  270 1
   181  271  272 1
   182  271  273 1
   183  274  275 1
   184  274  276 1
   185  277  278 1
   186  277  279 1
   187  280  281 1
   188  280  282 1
   189  283  284 1
   190  283  285 1
   191  286  287 1
   192  286  288 1
   193  289  290 1
   194  289  291 1
   195  292  293 1
   196  292  294 1
   197  295  296 1
   198  295  297 1
   199  298  299 1
   200  298  300 1
   201  301  302 1
   202  301  303 1
   203  304  305 1
   204  304  306 1
   205  307  308 1
   206  307  309 1
   207  310  311 1
   208  310  312 1
   209  313  314 1
   210  313  315 1
   211  316  317 1
   212  316  318 1
   213  319  320 1
   214  319  321 1
   215  322  323 1
   216  322  324 1
   217  325  326 1
   218  325  327 1
   219  328  329 1
   220  328  330 1
   221  331  332 1
   222  331  333 1
   223  334  335 1
   224  334  336 1
@<TRIPOS>SUBSTRUCTURE
395 HOH502 1
396 HOH503 4
397 HOH579 7
398 HOH586 10
399 HOH588 13
400 HOH593 16
401 HOH594 19
402 HOH595 22
403 HOH601 25
404 HOH602 28
405 HOH603 31
406 HOH604 34
407 HOH605 37
408 HOH609 40
409 HOH610 43
410 HOH611 46
411 HOH613 49
412 HOH618 52
413 HOH620 55
414 HOH621 58
415 HOH622 61
416 HOH623 64
417 HOH629 67
418 HOH637 70
419 HOH638 73
420 HOH640 76
421 HOH641 79
422 HOH642 82
423 HOH643 85
424 HOH646 88
425 HOH649 91
426 HOH650 94
427 HOH651 97
428 HOH652 100
429 HOH667 103
430 HOH668 106
431 HOH672 109
432 HOH673 112
433 HOH682 115
434 HOH683 118
435 HOH684 121
436 HOH694 124
437 HOH697 127
438 HOH698 130
439 HOH700 133
440 HOH706 136
441 HOH707 139
442 HOH708 142
443 HOH709 145
444 HOH710 148
445 HOH713 151
446 HOH715 154
447 HOH716 157
448 HOH724 160
449 HOH726 163
450 HOH727 166
451 HOH729 169
452 HOH730 172
453 HOH735 175
454 HOH736 178
455 HOH737 181
456 HOH741 184
457 HOH742 187
458 HOH755 190
459 HOH757 193
460 HOH758 196
461 HOH767 199
462 HOH770 202
463 HOH774 205
464 HOH779 208
465 HOH780 211
466 HOH781 214
467 HOH793 217
468 HOH798 220
469 HOH800 223
470 HOH816 226
471 HOH817 229
472 HOH825 232
473 HOH828 235
474 HOH830 238
475 HOH850 241
476 HOH852 244
477 HOH854 247
478 HOH865 250
479 HOH866 253
480 HOH884 256
481 HOH887 259
482 HOH890 262
483 HOH891 265
484 HOH892 268
485 HOH896 271
486 HOH903 274
487 HOH905 277
488 HOH910 280
489 HOH914 283
490 HOH917 286
491 HOH921 289
492 HOH930 292
493 HOH931 295
494 HOH934 298
495 HOH935 301
496 HOH943 304
497 HOH955 307
498 HOH956 310
499 HOH957 313
500 HOH961 316
501 HOH963 319
502 HOH966 322
503 HOH967 325
504 HOH968 328
505 HOH969 331
506 HOH970 334
@<TRIPOS>COMMENT


